/*---------------------------------------------------------------------------*\
| =========                 |                                                 |
| \\      /  F ield         | foam-extend: Open Source CFD                    |
|  \\    /   O peration     | Version:     4.0                                |
|   \\  /    A nd           | Web:         http://www.foam-extend.org         |
|    \\/     M anipulation  | For copyright notice see file Copyright         |
\*---------------------------------------------------------------------------*/
Build    : 4.0-246a172c9d9e
Exec     : fsiFoam -parallel
Date     : Dec 05 2017
Time     : 15:40:19
Host     : comp-pc3240.leeds.ac.uk
PID      : 27914
CtrlDict : "/home/cserv1_a/soc_pg/scrh/foam/scrh-4.0/FluidSolidInteraction/run/fsiFoam/cylinder_parallelTest/fluid/system/controlDict"
Case     : /home/cserv1_a/soc_pg/scrh/foam/scrh-4.0/FluidSolidInteraction/run/fsiFoam/cylinder_parallelTest/fluid
nProcs   : 3
Slaves : 
2
(
comp-pc3240.leeds.ac.uk.27915
comp-pc3240.leeds.ac.uk.27916
)

Pstream initialized with:
    nProcsSimpleSum   : 0
    commsType         : nonBlocking
SigFpe   : Enabling floating point exception trapping (FOAM_SIGFPE).

// * * * * * * * * * * * * * * * * * * * * * * * * * * * * * * * * * * * * * //
Create time

Create dynamic mesh for time = 0

Selecting dynamicFvMesh dynamicMotionSolverFvMesh
Selecting motion solver: velocityLaplacian
Selecting motion diffusion: quadratic
Selecting motion diffusion: inverseDistance
 Reading stress mesh
Creating fixed displacement boundary condition
Creating fixed displacement boundary condition
Creating traction displacement boundary conditions
Selecting rheology model linearElastic
Creating constitutive model
Selecting coupling scheme Aitken

Starting time loop

Time = 0.1 (dt = 0.1)

Create extended GGI zone-to-zone interpolator
Checking fluid-to-solid face interpolator
Fluid-to-solid face interpolation error: 3.9275700192985e-08
Checking solid-to-fluid point interpolator (GGI)
calcMasterPointAddressing() const
Extended GGI, master point distance, max: 3.9141346988576e-08, avg: -8.0601121181559e-09, min: -4.0922624209743e-08
Solid-to-fluid point interpolation error (GGI): 4.0922624213256e-08
Number of uncovered master faces: 0
Number of uncovered slave faces: 0
calcSlavePointAddressing() const
Extended GGI, slave point distance, max: 3.8759361494858e-08, avg: -8.5782999847654e-09, min: -4.2379719691449e-08
Extended GGI, slave point orientation (<0), max: -0.99922822012823, min: -0.99923074258162, nIncorrectPoints: 0/3280
Setting traction on solid patch
Total force (fluid) = (0 0 0)
Total force (solid) = (0 0 0)
Evolving solid solver: unsTotalLagrangianSolid
fvMatrix<Type>::solve: Solving for D, Initial residula = 0, Final residual = 0, No outer iterations = 1
Max relative residual = 0, Relative residual = 0, enforceLinear = 0
Current fsi relative residual norm: 0
Alternative fsi residual: 0

Time = 0.1, iteration: 1
Current fsi under-relaxation factor: 0.4
[1] Creating accumulated fluid interface displacement
[0] Creating accumulated fluid interface displacement
[2] Creating accumulated fluid interface displacement
Maximal accumulated displacement of interface points: 0
GAMG:  Solving for cellMotionUx, Initial residual = 0, Final residual = 0, No Iterations 1
GAMG:  Solving for cellMotionUy, Initial residual = 0, Final residual = 0, No Iterations 1
GAMG:  Solving for cellMotionUz, Initial residual = 0, Final residual = 0, No Iterations 1
Evolving fluid solver: consistentIcoFluid
Courant Number mean: 0 max: 0.55810058661334 velocity magnitude: 0.1
DILUPBiCG:  Solving for Ux, Initial residual = 1, Final residual = 6.5820048789784e-07, No Iterations 34
DILUPBiCG:  Solving for Uy, Initial residual = 0.64960296878304, Final residual = 7.8917889070558e-07, No Iterations 42
DILUPBiCG:  Solving for Uz, Initial residual = 0.95676628007445, Final residual = 8.2625749406022e-07, No Iterations 45
DICPCG:  Solving for p, Initial residual = 1, Final residual = 0.00094130764817221, No Iterations 199
DICPCG:  Solving for p, Initial residual = 0.0074805960574451, Final residual = 7.4244236615529e-06, No Iterations 109
time step continuity errors : sum local = 5.211240063963e-06, global = 1.4363866089757e-07
DICPCG:  Solving for p, Initial residual = 0.028556120572087, Final residual = 2.6606779972171e-05, No Iterations 188
DICPCG:  Solving for p, Initial residual = 0.13835234156764, Final residual = 0.00013383884823973, No Iterations 117
time step continuity errors : sum local = 5.0075250542828e-06, global = -4.6208641643781e-07
DICPCG:  Solving for p, Initial residual = 0.49443398884326, Final residual = 0.00047767627778405, No Iterations 168
DICPCG:  Solving for p, Initial residual = 0.0080974934363348, Final residual = 7.7437825985643e-06, No Iterations 164
time step continuity errors : sum local = 1.3653226172527e-07, global = 2.9056715770622e-09
Setting traction on solid patch
Total force (fluid) = (-0.50566820447559 2.4714180615173e-05 6.6643942797963e-08)
Total force (solid) = (0.50566859431547 -2.47142113782e-05 -6.6640576327834e-08)
Evolving solid solver: unsTotalLagrangianSolid
DICPCG: Solving for D, Initial residula = 1, Final residual = 0.0014709534556661, No outer iterations = 135
Max relative residual = 0.99999999966828, Relative residual = 0.00099226774396154, enforceLinear = 0
Current fsi relative residual norm: 0.99999999999967
Alternative fsi residual: 0.99999999999967

Time = 0.1, iteration: 2
Current fsi under-relaxation factor: 0.4
Maximal accumulated displacement of interface points: 0.019489365523556
GAMG:  Solving for cellMotionUx, Initial residual = 1, Final residual = 0.0001350957781851, No Iterations 3
GAMG:  Solving for cellMotionUy, Initial residual = 1, Final residual = 0.00022981781433941, No Iterations 3
GAMG:  Solving for cellMotionUz, Initial residual = 1, Final residual = 0.00016269649774522, No Iterations 3
Evolving fluid solver: consistentIcoFluid
Courant Number mean: 0.53086151622441 max: 14.429261391908 velocity magnitude: 0.11368987190283
DILUPBiCG:  Solving for Ux, Initial residual = 0.47022585316053, Final residual = 9.5660560405026e-07, No Iterations 60
DILUPBiCG:  Solving for Uy, Initial residual = 0.64042583731267, Final residual = 7.2823701013609e-07, No Iterations 67
DILUPBiCG:  Solving for Uz, Initial residual = 0.73487173837038, Final residual = 7.1154675646779e-07, No Iterations 51
DICPCG:  Solving for p, Initial residual = 0.71295308127053, Final residual = 0.0006916474615249, No Iterations 184
DICPCG:  Solving for p, Initial residual = 0.015049974483545, Final residual = 1.4116714600304e-05, No Iterations 169
time step continuity errors : sum local = 1.3178884400925e-06, global = -7.1145011079116e-08
DICPCG:  Solving for p, Initial residual = 0.44147309821033, Final residual = 0.00042403213876373, No Iterations 183
DICPCG:  Solving for p, Initial residual = 0.038847812405479, Final residual = 3.7579749762405e-05, No Iterations 170
time step continuity errors : sum local = 1.1956831522692e-06, global = 6.3586396855023e-08
DICPCG:  Solving for p, Initial residual = 0.25732231355744, Final residual = 0.00023425915482071, No Iterations 167
DICPCG:  Solving for p, Initial residual = 0.0088421208805609, Final residual = 8.2953969874332e-06, No Iterations 166
time step continuity errors : sum local = 2.0697413943355e-07, global = 1.6123547306537e-09
Setting traction on solid patch
Total force (fluid) = (-0.15337760971314 -4.2458678021473e-05 -6.8655317311813e-06)
Total force (solid) = (0.1533292262862 4.2458261342763e-05 6.8662300178457e-06)
Evolving solid solver: unsTotalLagrangianSolid
DICPCG: Solving for D, Initial residula = 0.018804431794871, Final residual = 3.6260296868611e-05, No outer iterations = 333
Max relative residual = 0.028261237255925, Relative residual = 2.7707720981293e-05, enforceLinear = 0
Current fsi relative residual norm: 0.096215501483606
Alternative fsi residual: 0.096215501483606

Time = 0.1, iteration: 3
Current fsi under-relaxation factor (Aitken): 0.36652032378469
Maximal accumulated displacement of interface points: 0.0018664350288032
GAMG:  Solving for cellMotionUx, Initial residual = 0.72421287045864, Final residual = 0.00024093865940073, No Iterations 3
GAMG:  Solving for cellMotionUy, Initial residual = 0.58599471249708, Final residual = 0.00031161826809533, No Iterations 3
GAMG:  Solving for cellMotionUz, Initial residual = 0.90018175231744, Final residual = 0.00035809214760622, No Iterations 3
Evolving fluid solver: consistentIcoFluid
Courant Number mean: 0.5395112732913 max: 16.386420116714 velocity magnitude: 0.12089266108265
DILUPBiCG:  Solving for Ux, Initial residual = 0.54206841120695, Final residual = 5.3349671817079e-07, No Iterations 78
DILUPBiCG:  Solving for Uy, Initial residual = 0.65414028611479, Final residual = 9.6025041293175e-07, No Iterations 64
DILUPBiCG:  Solving for Uz, Initial residual = 0.70367252784042, Final residual = 7.9998061756504e-07, No Iterations 49
DICPCG:  Solving for p, Initial residual = 0.77636368668587, Final residual = 0.00071655678020693, No Iterations 171
DICPCG:  Solving for p, Initial residual = 0.016481067786916, Final residual = 1.6391600747921e-05, No Iterations 167
time step continuity errors : sum local = 1.8503879588786e-06, global = 8.8586358153812e-09
DICPCG:  Solving for p, Initial residual = 0.25716754002435, Final residual = 0.00021517536341655, No Iterations 174
DICPCG:  Solving for p, Initial residual = 0.024745962862129, Final residual = 2.20983987988e-05, No Iterations 168
time step continuity errors : sum local = 1.4251478483458e-06, global = -7.0394767436514e-09
DICPCG:  Solving for p, Initial residual = 0.21628911835358, Final residual = 0.00021536541577699, No Iterations 165
DICPCG:  Solving for p, Initial residual = 0.0076204661791957, Final residual = 6.9118814398558e-06, No Iterations 163
time step continuity errors : sum local = 3.1206011425472e-07, global = -3.4914594824426e-09
Setting traction on solid patch
Total force (fluid) = (-0.42186348179285 4.11091593374e-05 -7.3054747317774e-06)
Total force (solid) = (0.42186720250154 -4.1120472450609e-05 7.3065643905568e-06)
Evolving solid solver: unsTotalLagrangianSolid
DICPCG: Solving for D, Initial residula = 0.032684857418411, Final residual = 8.9176660177084e-05, No outer iterations = 242
Max relative residual = 0.061688212416483, Relative residual = 6.1376564513428e-05, enforceLinear = 0
Current fsi relative residual norm: 0.48788000195269
Alternative fsi residual: 0.48788000195269

Time = 0.1, iteration: 4
Current fsi under-relaxation factor (Aitken): 0.058319159723501
Maximal accumulated displacement of interface points: 0.0013995927837742
GAMG:  Solving for cellMotionUx, Initial residual = 0.53582412025653, Final residual = 0.00013118320092589, No Iterations 4
GAMG:  Solving for cellMotionUy, Initial residual = 0.79810786223146, Final residual = 0.00059600770849657, No Iterations 3
GAMG:  Solving for cellMotionUz, Initial residual = 0.95171055006924, Final residual = 0.00031517037044859, No Iterations 4
Evolving fluid solver: consistentIcoFluid
Courant Number mean: 0.54987326913141 max: 16.514713556682 velocity magnitude: 0.15826952865805
DILUPBiCG:  Solving for Ux, Initial residual = 0.85130531587366, Final residual = 4.2730349574177e-07, No Iterations 73
DILUPBiCG:  Solving for Uy, Initial residual = 0.82566782437216, Final residual = 2.556486569747e-07, No Iterations 62
DILUPBiCG:  Solving for Uz, Initial residual = 0.5835747976265, Final residual = 9.5719602696152e-07, No Iterations 51
DICPCG:  Solving for p, Initial residual = 0.95002133422867, Final residual = 0.00089478169410167, No Iterations 81
DICPCG:  Solving for p, Initial residual = 0.011103026012996, Final residual = 1.072117129112e-05, No Iterations 168
time step continuity errors : sum local = 5.2268618691192e-06, global = -1.4059927815412e-08
DICPCG:  Solving for p, Initial residual = 0.2501877749833, Final residual = 0.0002483313738263, No Iterations 105
DICPCG:  Solving for p, Initial residual = 0.012560851345305, Final residual = 1.2407877212575e-05, No Iterations 165
time step continuity errors : sum local = 4.0458301606644e-06, global = 1.2292739236835e-07
DICPCG:  Solving for p, Initial residual = 0.2484973918507, Final residual = 0.00022908944234218, No Iterations 86
DICPCG:  Solving for p, Initial residual = 0.0051442787207398, Final residual = 4.8532239332922e-06, No Iterations 163
time step continuity errors : sum local = 1.0081503981031e-06, global = -1.3464499705017e-08
Setting traction on solid patch
Total force (fluid) = (-0.4115618690513 -0.00031508623803761 -1.8649890414864e-05)
Total force (solid) = (0.41156545641018 0.0003151027729399 1.8652275456793e-05)
Evolving solid solver: unsTotalLagrangianSolid
DICPCG: Solving for D, Initial residula = 0.023401001476211, Final residual = 3.2775226268699e-06, No outer iterations = 267
Max relative residual = 0.0021406390336402, Relative residual = 2.1081745615355e-06, enforceLinear = 0
Current fsi relative residual norm: 0.43117002475145
Alternative fsi residual: 0.43117002475145

Time = 0.1, iteration: 5
Current fsi under-relaxation factor (Aitken): 0.4715522591926
Maximal accumulated displacement of interface points: 0.010316884247208
GAMG:  Solving for cellMotionUx, Initial residual = 0.87904244100509, Final residual = 0.00031922309237342, No Iterations 3
GAMG:  Solving for cellMotionUy, Initial residual = 0.75762340285436, Final residual = 0.00034862358114466, No Iterations 3
GAMG:  Solving for cellMotionUz, Initial residual = 0.7593158582557, Final residual = 0.00024497581299726, No Iterations 3
Evolving fluid solver: consistentIcoFluid
Courant Number mean: 0.66284867303534 max: 35.594280772492 velocity magnitude: 0.81561121848532
DILUPBiCG:  Solving for Ux, Initial residual = 0.96342538304685, Final residual = 8.847555552702e-07, No Iterations 68
DILUPBiCG:  Solving for Uy, Initial residual = 0.8787008240743, Final residual = 8.0353924934742e-07, No Iterations 62
DILUPBiCG:  Solving for Uz, Initial residual = 0.53331644007228, Final residual = 6.0207431033578e-07, No Iterations 48
DICPCG:  Solving for p, Initial residual = 0.98486829410988, Final residual = 0.00095867037404317, No Iterations 171
DICPCG:  Solving for p, Initial residual = 0.0074629895632293, Final residual = 6.875960783806e-06, No Iterations 165
time step continuity errors : sum local = 2.2154500151104e-05, global = -6.482629225627e-07
DICPCG:  Solving for p, Initial residual = 0.28492088265555, Final residual = 0.00026722361162143, No Iterations 177
DICPCG:  Solving for p, Initial residual = 0.007795421301499, Final residual = 7.6682368854215e-06, No Iterations 168
time step continuity errors : sum local = 1.567430981897e-05, global = 6.1776691997063e-07
DICPCG:  Solving for p, Initial residual = 0.29598581264535, Final residual = 0.00028829211401727, No Iterations 107
DICPCG:  Solving for p, Initial residual = 0.0043015642972228, Final residual = 3.7009462692167e-06, No Iterations 136
time step continuity errors : sum local = 4.3610118423855e-06, global = 1.4324598517747e-07
Setting traction on solid patch
Total force (fluid) = (-0.84763529532722 -0.0023172075858951 -9.5058663148949e-06)
Total force (solid) = (0.84774164722821 0.002317432323787 9.5080672132575e-06)
Evolving solid solver: unsTotalLagrangianSolid
DICPCG: Solving for D, Initial residula = 0.071075988587611, Final residual = 6.1647595599988e-05, No outer iterations = 246
Max relative residual = 0.047229895140063, Relative residual = 4.6609646009794e-05, enforceLinear = 0
Current fsi relative residual norm: 0.99999999999969
Alternative fsi residual: 0.64672991217646

Time = 0.1, iteration: 6
Current fsi under-relaxation factor (Aitken): 0.30587414031625
Maximal accumulated displacement of interface points: 0.016491990685331
GAMG:  Solving for cellMotionUx, Initial residual = 0.43979920896612, Final residual = 0.00015964253870193, No Iterations 2
GAMG:  Solving for cellMotionUy, Initial residual = 0.23510190333742, Final residual = 0.00017070211765888, No Iterations 3
GAMG:  Solving for cellMotionUz, Initial residual = 0.24002498444043, Final residual = 0.00021690206900869, No Iterations 2
Evolving fluid solver: consistentIcoFluid
Courant Number mean: 1.9776557087583 max: 406.06023435428 velocity magnitude: 12.643374051145
DILUPBiCG:  Solving for Ux, Initial residual = 0.82066124548624, Final residual = 7.3607075660748e-07, No Iterations 120
DILUPBiCG:  Solving for Uy, Initial residual = 0.82824448788964, Final residual = 9.229406921761e-07, No Iterations 102
DILUPBiCG:  Solving for Uz, Initial residual = 0.73038934958495, Final residual = 6.4937206833341e-07, No Iterations 94
DICPCG:  Solving for p, Initial residual = 0.97792850924134, Final residual = 0.00095500409035727, No Iterations 169
DICPCG:  Solving for p, Initial residual = 0.0057363707354376, Final residual = 5.601660167222e-06, No Iterations 169
time step continuity errors : sum local = 9.2293623244073e-05, global = 2.7379371233219e-08
DICPCG:  Solving for p, Initial residual = 0.40604649042112, Final residual = 0.00036471140557856, No Iterations 171
DICPCG:  Solving for p, Initial residual = 0.0079602071168343, Final residual = 7.9169389143416e-06, No Iterations 176
time step continuity errors : sum local = 6.726156706393e-05, global = 6.4020727347131e-07
DICPCG:  Solving for p, Initial residual = 0.44284722258955, Final residual = 0.00043530376498119, No Iterations 113
DICPCG:  Solving for p, Initial residual = 0.0041846666295508, Final residual = 3.8598341491939e-06, No Iterations 162
time step continuity errors : sum local = 1.6577971004627e-05, global = 2.2683385927681e-08
Setting traction on solid patch
Total force (fluid) = (-1.2923201284657 -0.0023258579853905 7.0111831431857e-05)
Total force (solid) = (1.2925191105644 0.002326206385463 -7.0118170656053e-05)
Evolving solid solver: unsTotalLagrangianSolid
DICPCG: Solving for D, Initial residula = 0.066718496262737, Final residual = 3.4531880194047e-05, No outer iterations = 253
Max relative residual = 0.027153293174599, Relative residual = 2.7124983515238e-05, enforceLinear = 0
Current fsi relative residual norm: 0.9999999999998
Alternative fsi residual: 0.63786647820002

Time = 0.1, iteration: 7
Current fsi under-relaxation factor (Aitken): 0.61013836206692
Maximal accumulated displacement of interface points: 0.048889335784748
GAMG:  Solving for cellMotionUx, Initial residual = 0.73112465351152, Final residual = 0.00067516629593586, No Iterations 2
GAMG:  Solving for cellMotionUy, Initial residual = 0.53812184968076, Final residual = 0.00015177554967333, No Iterations 3
GAMG:  Solving for cellMotionUz, Initial residual = 0.49819115221644, Final residual = 6.7105282754266e-05, No Iterations 3
Evolving fluid solver: consistentIcoFluid
Courant Number mean: 6.4517416437818 max: 1431.9742240304 velocity magnitude: 43.199683686469
DILUPBiCG:  Solving for Ux, Initial residual = 0.85621735258716, Final residual = 1.3572553827842, No Iterations 1000
DILUPBiCG:  Solving for Uy, Initial residual = 0.88420871167596, Final residual = 3.8851984541556, No Iterations 1000
DILUPBiCG:  Solving for Uz, Initial residual = 0.8638873801559, Final residual = 1151.9379910849, No Iterations 1000
DICPCG:  Solving for p, Initial residual = 0.99552769478012, Final residual = 0.09706950967959, No Iterations 1000
DICPCG:  Solving for p, Initial residual = 0.051261928022973, Final residual = 0.020979656456291, No Iterations 1000
time step continuity errors : sum local = 51.701949033544, global = 0.014507239977167
DICPCG:  Solving for p, Initial residual = 0.99870717893888, Final residual = 0.0077241905510389, No Iterations 1000
DICPCG:  Solving for p, Initial residual = 0.0041648635813644, Final residual = 0.00040562183770613, No Iterations 1000
time step continuity errors : sum local = 928.08911451217, global = -5.5481979551751
DICPCG:  Solving for p, Initial residual = 0.98098639461302, Final residual = 0.0022580730660237, No Iterations 1000
DICPCG:  Solving for p, Initial residual = 0.0014455357186297, Final residual = 0.0011379024458605, No Iterations 1000
time step continuity errors : sum local = 256869.49384844, global = -46.503549555478
Setting traction on solid patch
Total force (fluid) = (-14883621.945561 1310534.2583873 -4363.270809254)
Total force (solid) = (14890384.45394 -1310688.3878111 4365.154104206)
Evolving solid solver: unsTotalLagrangianSolid
det: -22518610.527278, 23581921.773248
DICPCG: Solving for D, Initial residula = 0.99999951918087, Final residual = 0.0013399321688073, No outer iterations = 136
Max relative residual = 0.99999852788675, Relative residual = 0.00098085218620979, enforceLinear = 0
Current fsi relative residual norm: 1
Alternative fsi residual: 0.99999993364112

Time = 0.1, iteration: 8
Current fsi under-relaxation factor (Aitken): 3.4348562346736e-08
Maximal accumulated displacement of interface points: 0.052091788775979
GAMG:  Solving for cellMotionUx, Initial residual = 0.14357942446212, Final residual = 0.00013153690821062, No Iterations 3
GAMG:  Solving for cellMotionUy, Initial residual = 0.72901962015033, Final residual = 0.00013453763702909, No Iterations 3
GAMG:  Solving for cellMotionUz, Initial residual = 0.077391916356, Final residual = 2.0326848328325e-05, No Iterations 4
Evolving fluid solver: consistentIcoFluid
Courant Number mean: 158926643.2734 max: 6697505757153.8 velocity magnitude: 154806430722.17
DILUPBiCG:  Solving for Ux, Initial residual = 0.99999776407512, Final residual = 1398.4250993892, No Iterations 1000
DILUPBiCG:  Solving for Uy, Initial residual = 0.99999999842052, Final residual = 1.0339015269082, No Iterations 1000
DILUPBiCG:  Solving for Uz, Initial residual = 0.99999999991284, Final residual = 0.99666494607618, No Iterations 1000
DICPCG:  Solving for p, Initial residual = 0.99999999999245, Final residual = 8.170618329601, No Iterations 1000
DICPCG:  Solving for p, Initial residual = 0.90313023937091, Final residual = 3.5777062226969, No Iterations 1000
time step continuity errors : sum local = 1.6935966876736e+17, global = 44140124131.509
DICPCG:  Solving for p, Initial residual = 0.99905852700043, Final residual = 8.8048533921683, No Iterations 1000
DICPCG:  Solving for p, Initial residual = 0.94923728526909, Final residual = 13.813396550669, No Iterations 1000
time step continuity errors : sum local = 2.1983592277611e+22, global = -2.6580977187695e+16
DICPCG:  Solving for p, Initial residual = 0.99895018608464, Final residual = 15.075595767182, No Iterations 1000
DICPCG:  Solving for p, Initial residual = 0.95420596860644, Final residual = 9.4828803082154, No Iterations 1000
time step continuity errors : sum local = 2.7974914191479e+27, global = 1.3667067328771e+21
Setting traction on solid patch
Total force (fluid) = (9.5849891239378e+29 1.1409310689419e+30 2.3963035008955e+27)
Total force (solid) = (-9.5917682406804e+29 -1.1411236509045e+30 -2.3979643420423e+27)
Evolving solid solver: unsTotalLagrangianSolid
--> FOAM Warning : 
    From function eigenValues(const tensor&)
    in file primitives/Tensor/tensor/tensor.C at line 178
    complex eigenvalues detected for tensor: (-13943.90998557 14140.516184516 41092.476978145 9202.2196840738 -15659.026489818 -40865.224565201 -49743.402024148 33247.570272789 35257.946753795)
--> FOAM Warning : 
    From function eigenValues(const tensor&)
    in file primitives/Tensor/tensor/tensor.C at line 178
    complex eigenvalues detected for tensor: (-13943.90998557 14140.516184516 41092.476978145 9202.2196840738 -15659.026489818 -40865.224565201 -49743.402024148 33247.570272789 35257.946753795)
--> FOAM Warning : 
    From function eigenValues(const tensor&)
    in file primitives/Tensor/tensor/tensor.C at line 178
    complex eigenvalues detected for tensor: (-11605.789316944 10040.676371137 30256.08456513 -961.28806156676 -12160.317121292 -22932.893919012 -42065.851122405 12242.993748062 24374.925040959)
--> FOAM Warning : 
    From function eigenValues(const tensor&)
    in file primitives/Tensor/tensor/tensor.C at line 178
    complex eigenvalues detected for tensor: (-11605.789316944 10040.676371137 30256.08456513 -961.28806156676 -12160.317121292 -22932.893919012 -42065.851122405 12242.993748062 24374.925040959)
--> FOAM Warning : 
    From function eigenValues(const tensor&)
    in file primitives/Tensor/tensor/tensor.C at line 178
    complex eigenvalues detected for tensor: (-10433.403920152 7816.5861076031 29307.573283391 -4107.5868707339 -10545.72900877 -17122.570113985 -42610.872820515 5032.760229395 19543.580610074)
--> FOAM Warning : 
    From function eigenValues(const tensor&)
    in file primitives/Tensor/tensor/tensor.C at line 178
    complex eigenvalues detected for tensor: (-10433.403920152 7816.5861076031 29307.573283391 -4107.5868707339 -10545.72900877 -17122.570113985 -42610.872820515 5032.760229395 19543.580610074)
--> FOAM Warning : 
    From function eigenValues(const tensor&)
    in file primitives/Tensor/tensor/tensor.C at line 178
    complex eigenvalues detected for tensor: (-9253.0001741521 6272.4518600257 30476.650374019 -4927.0961276965 -9166.33435322 -14483.064246915 -44349.842449955 1887.589289356 15758.593719283)
--> FOAM Warning : 
    From function eigenValues(const tensor&)
    in file primitives/Tensor/tensor/tensor.C at line 178
    complex eigenvalues detected for tensor: (-9253.0001741521 6272.4518600257 30476.650374019 -4927.0961276965 -9166.33435322 -14483.064246915 -44349.842449955 1887.589289356 15758.593719283)
--> FOAM Warning : 
    From function eigenValues(const tensor&)
    in file primitives/Tensor/tensor/tensor.C at line 178
    complex eigenvalues detected for tensor: (-8017.5764860726 4958.2749556841 31931.668961802 -4751.0519449965 -7840.4155680537 -12968.552303435 -45815.858429892 404.14130731015 12274.681665595)
--> FOAM Warning : 
    From function eigenValues(const tensor&)
    in file primitives/Tensor/tensor/tensor.C at line 178
    complex eigenvalues detected for tensor: (-8017.5764860726 4958.2749556841 31931.668961802 -4751.0519449965 -7840.4155680537 -12968.552303435 -45815.858429892 404.14130731015 12274.681665595)
--> FOAM Warning : 
    From function eigenValues(const tensor&)
    in file primitives/Tensor/tensor/tensor.C at line 178
    complex eigenvalues detected for tensor: (-6758.3849618961 3738.9851985026 33111.508423089 -4098.9517066892 -6553.4229833078 -11925.436758615 -46644.212892621 -271.20225731504 8933.8929198579)
--> FOAM Warning : 
    From function eigenValues(const tensor&)
    in file primitives/Tensor/tensor/tensor.C at line 178
    complex eigenvalues detected for tensor: (-6758.3849618961 3738.9851985026 33111.508423089 -4098.9517066892 -6553.4229833078 -11925.436758615 -46644.212892621 -271.20225731504 8933.8929198579)
--> FOAM Warning : 
    From function eigenValues(const tensor&)
    in file primitives/Tensor/tensor/tensor.C at line 178
    complex eigenvalues detected for tensor: (-5513.8357248768 2574.9709052336 33810.68280205 -3225.0503384705 -5308.5924528634 -11090.829930625 -46749.62085917 -529.29261691854 5725.3123847713)
--> FOAM Warning : 
    From function eigenValues(const tensor&)
    in file primitives/Tensor/tensor/tensor.C at line 178
    complex eigenvalues detected for tensor: (-5513.8357248768 2574.9709052336 33810.68280205 -3225.0503384705 -5308.5924528634 -11090.829930625 -46749.62085917 -529.29261691854 5725.3123847713)
--> FOAM Warning : 
    From function eigenValues(const tensor&)
    in file primitives/Tensor/tensor/tensor.C at line 178
    complex eigenvalues detected for tensor: (-4313.3699432518 1462.4182575342 33957.648488354 -2273.6041890631 -4112.0825404582 -10343.589024208 -46145.406436577 -567.92658538496 2673.4763785725)
--> FOAM Warning : 
    From function eigenValues(const tensor&)
    in file primitives/Tensor/tensor/tensor.C at line 178
    complex eigenvalues detected for tensor: (-4313.3699432518 1462.4182575342 33957.648488354 -2273.6041890631 -4112.0825404582 -10343.589024208 -46145.406436577 -567.92658538496 2673.4763785725)
--> FOAM Warning : 
    From function eigenValues(const tensor&)
    in file primitives/Tensor/tensor/tensor.C at line 178
    complex eigenvalues detected for tensor: (-3177.0972970583 414.64513551993 33540.559458349 -1323.3233917362 -2980.9518459748 -9623.7362791516 -44881.337821705 -494.48082736742 -192.3645476048)
--> FOAM Warning : 
    From function eigenValues(const tensor&)
    in file primitives/Tensor/tensor/tensor.C at line 178
    complex eigenvalues detected for tensor: (-3177.0972970583 414.64513551993 33540.559458349 -1323.3233917362 -2980.9518459748 -9623.7362791516 -44881.337821705 -494.48082736742 -192.3645476048)
--> FOAM Warning : 
    From function eigenValues(const tensor&)
    in file primitives/Tensor/tensor/tensor.C at line 178
    complex eigenvalues detected for tensor: (-2119.6010863957 -553.74606507536 32573.339708813 -412.94702308871 -1933.5396929421 -8898.4777441798 -43007.680725074 -374.22409685678 -2847.5634294359)
--> FOAM Warning : 
    From function eigenValues(const tensor&)
    in file primitives/Tensor/tensor/tensor.C at line 178
    complex eigenvalues detected for tensor: (-2119.6010863957 -553.74606507536 32573.339708813 -412.94702308871 -1933.5396929421 -8898.4777441798 -43007.680725074 -374.22409685678 -2847.5634294359)
--> FOAM Warning : 
    From function eigenValues(const tensor&)
    in file primitives/Tensor/tensor/tensor.C at line 178
    complex eigenvalues detected for tensor: (-1151.3910789223 -1435.8816440395 31084.942684446 436.76790650623 -979.08296980958 -8150.4574501042 -40572.951265544 -248.65137697433 -5274.1650226161)
--> FOAM Warning : 
    From function eigenValues(const tensor&)
    in file primitives/Tensor/tensor/tensor.C at line 178
    complex eigenvalues detected for tensor: (-1151.3910789223 -1435.8816440395 31084.942684446 436.76790650623 -979.08296980958 -8150.4574501042 -40572.951265544 -248.65137697433 -5274.1650226161)
--> FOAM Warning : 
    From function eigenValues(const tensor&)
    in file primitives/Tensor/tensor/tensor.C at line 178
    complex eigenvalues detected for tensor: (-278.43864226786 -2232.751899082 29118.734700247 1213.0669374088 -118.41221594202 -7375.655254668 -37635.04263156 -139.1687056289 -7461.7440758437)
--> FOAM Warning : 
    From function eigenValues(const tensor&)
    in file primitives/Tensor/tensor/tensor.C at line 178
    complex eigenvalues detected for tensor: (-278.43864226786 -2232.751899082 29118.734700247 1213.0669374088 -118.41221594202 -7375.655254668 -37635.04263156 -139.1687056289 -7461.7440758437)
--> FOAM Warning : 
    From function eigenValues(const tensor&)
    in file primitives/Tensor/tensor/tensor.C at line 178
    complex eigenvalues detected for tensor: (497.49480692022 -2948.1878168159 26724.657403025 1908.9900212342 649.2895142601 -6575.4096604913 -34254.970501704 -51.784573695235 -9406.1488937234)
--> FOAM Warning : 
    From function eigenValues(const tensor&)
    in file primitives/Tensor/tensor/tensor.C at line 178
    complex eigenvalues detected for tensor: (497.49480692022 -2948.1878168159 26724.657403025 1908.9900212342 649.2895142601 -6575.4096604913 -34254.970501704 -51.784573695235 -9406.1488937234)
--> FOAM Warning : 
    From function eigenValues(const tensor&)
    in file primitives/Tensor/tensor/tensor.C at line 178
    complex eigenvalues detected for tensor: (-11432.072534925 13313.518956658 35577.051185545 7910.9811618056 -16375.222930123 -40877.946988379 -45707.253884569 33212.261959376 32724.706530959)
--> FOAM Warning : 
    From function eigenValues(const tensor&)
    in file primitives/Tensor/tensor/tensor.C at line 178
    complex eigenvalues detected for tensor: (-11432.072534925 13313.518956658 35577.051185545 7910.9811618056 -16375.222930123 -40877.946988379 -45707.253884569 33212.261959376 32724.706530959)
--> FOAM Warning : 
    From function eigenValues(const tensor&)
    in file primitives/Tensor/tensor/tensor.C at line 178
    complex eigenvalues detected for tensor: (-10278.285148883 10091.118907553 27321.871593573 -1906.1709778313 -12058.361209123 -23060.235275648 -40926.546210343 12525.124367867 22527.832510906)
--> FOAM Warning : 
    From function eigenValues(const tensor&)
    in file primitives/Tensor/tensor/tensor.C at line 178
    complex eigenvalues detected for tensor: (-10278.285148883 10091.118907553 27321.871593573 -1906.1709778313 -12058.361209123 -23060.235275648 -40926.546210343 12525.124367867 22527.832510906)
--> FOAM Warning : 
    From function eigenValues(const tensor&)
    in file primitives/Tensor/tensor/tensor.C at line 178
    complex eigenvalues detected for tensor: (-9525.7179552516 8151.1509192535 27138.552971268 -4722.5038469409 -10169.188431762 -17164.774715426 -42536.775312553 5196.0881835518 18014.818860706)
--> FOAM Warning : 
    From function eigenValues(const tensor&)
    in file primitives/Tensor/tensor/tensor.C at line 178
    complex eigenvalues detected for tensor: (-9525.7179552516 8151.1509192535 27138.552971268 -4722.5038469409 -10169.188431762 -17164.774715426 -42536.775312553 5196.0881835518 18014.818860706)
--> FOAM Warning : 
    From function eigenValues(const tensor&)
    in file primitives/Tensor/tensor/tensor.C at line 178
    complex eigenvalues detected for tensor: (-8593.9719457533 6606.3700530329 28672.206740973 -5356.479396167 -8739.3505367875 -14470.409669626 -44748.740560605 1986.9446795956 14526.742425017)
--> FOAM Warning : 
    From function eigenValues(const tensor&)
    in file primitives/Tensor/tensor/tensor.C at line 178
    complex eigenvalues detected for tensor: (-8593.9719457533 6606.3700530329 28672.206740973 -5356.479396167 -8739.3505367875 -14470.409669626 -44748.740560605 1986.9446795956 14526.742425017)
--> FOAM Warning : 
    From function eigenValues(const tensor&)
    in file primitives/Tensor/tensor/tensor.C at line 178
    complex eigenvalues detected for tensor: (-7535.6286336225 5240.4854073315 30347.181957604 -5051.6645656252 -7445.4939383057 -12925.986139959 -46439.965619376 473.06134024793 11323.063209832)
--> FOAM Warning : 
    From function eigenValues(const tensor&)
    in file primitives/Tensor/tensor/tensor.C at line 178
    complex eigenvalues detected for tensor: (-7535.6286336225 5240.4854073315 30347.181957604 -5051.6645656252 -7445.4939383057 -12925.986139959 -46439.965619376 473.06134024793 11323.063209832)
--> FOAM Warning : 
    From function eigenValues(const tensor&)
    in file primitives/Tensor/tensor/tensor.C at line 178
    complex eigenvalues detected for tensor: (-6431.6028479932 3979.3061117003 31686.190038165 -4299.2871027356 -6216.1462711832 -11872.841074387 -47369.777147571 -214.61255409957 8246.9751820029)
--> FOAM Warning : 
    From function eigenValues(const tensor&)
    in file primitives/Tensor/tensor/tensor.C at line 178
    complex eigenvalues detected for tensor: (-6431.6028479932 3979.3061117003 31686.190038165 -4299.2871027356 -6216.1462711832 -11872.841074387 -47369.777147571 -214.61255409957 8246.9751820029)
--> FOAM Warning : 
    From function eigenValues(const tensor&)
    in file primitives/Tensor/tensor/tensor.C at line 178
    complex eigenvalues detected for tensor: (-5322.3144472558 2779.0458412377 32520.997227655 -3344.5652351725 -5040.4842296908 -11042.956546876 -47508.335127633 -473.65338350965 5287.8645268328)
--> FOAM Warning : 
    From function eigenValues(const tensor&)
    in file primitives/Tensor/tensor/tensor.C at line 178
    complex eigenvalues detected for tensor: (-5322.3144472558 2779.0458412377 32520.997227655 -3344.5652351725 -5040.4842296908 -11042.956546876 -47508.335127633 -473.65338350965 5287.8645268328)
--> FOAM Warning : 
    From function eigenValues(const tensor&)
    in file primitives/Tensor/tensor/tensor.C at line 178
    complex eigenvalues detected for tensor: (-4228.4922032536 1617.5809033114 32788.240640572 -2321.9114584021 -3924.5421384088 -10304.525801932 -46896.051809338 -510.57904884599 2469.9930127733)
--> FOAM Warning : 
    From function eigenValues(const tensor&)
    in file primitives/Tensor/tensor/tensor.C at line 178
    complex eigenvalues detected for tensor: (-4228.4922032536 1617.5809033114 32788.240640572 -2321.9114584021 -3924.5421384088 -10304.525801932 -46896.051809338 -510.57904884599 2469.9930127733)
--> FOAM Warning : 
    From function eigenValues(const tensor&)
    in file primitives/Tensor/tensor/tensor.C at line 178
    complex eigenvalues detected for tensor: (-3179.7222176945 508.74044321537 32475.470789927 -1301.2784743793 -2877.8393618327 -9590.3319813386 -45597.781287402 -439.66694225224 -178.27047126214)
--> FOAM Warning : 
    From function eigenValues(const tensor&)
    in file primitives/Tensor/tensor/tensor.C at line 178
    complex eigenvalues detected for tensor: (-3179.7222176945 508.74044321537 32475.470789927 -1301.2784743793 -2877.8393618327 -9590.3319813386 -45597.781287402 -439.66694225224 -178.27047126214)
--> FOAM Warning : 
    From function eigenValues(const tensor&)
    in file primitives/Tensor/tensor/tensor.C at line 178
    complex eigenvalues detected for tensor: (-2204.185951872 -518.83895321458 31602.432664716 -322.85778030668 -1908.5535960547 -8868.5532068602 -43674.059992988 -325.54981297823 -2633.3653432619)
--> FOAM Warning : 
    From function eigenValues(const tensor&)
    in file primitives/Tensor/tensor/tensor.C at line 178
    complex eigenvalues detected for tensor: (-2204.185951872 -518.83895321458 31602.432664716 -322.85778030668 -1908.5535960547 -8868.5532068602 -43674.059992988 -325.54981297823 -2633.3653432619)
--> FOAM Warning : 
    From function eigenValues(const tensor&)
    in file primitives/Tensor/tensor/tensor.C at line 178
    complex eigenvalues detected for tensor: (-1314.3748717393 -1452.1368523346 30207.195498887 587.59642951734 -1022.3177305378 -8125.3784960374 -41181.316579626 -205.27060645615 -4878.1248114775)
--> FOAM Warning : 
    From function eigenValues(const tensor&)
    in file primitives/Tensor/tensor/tensor.C at line 178
    complex eigenvalues detected for tensor: (-1314.3748717393 -1452.1368523346 30207.195498887 587.59642951734 -1022.3177305378 -8125.3784960374 -41181.316579626 -205.27060645615 -4878.1248114775)
--> FOAM Warning : 
    From function eigenValues(const tensor&)
    in file primitives/Tensor/tensor/tensor.C at line 178
    complex eigenvalues detected for tensor: (-510.43573569678 -2297.6133504045 28336.950662777 1416.7666143509 -222.29602752362 -7357.8027129072 -38182.712491011 -97.762000199701 -6902.3063563641)
--> FOAM Warning : 
    From function eigenValues(const tensor&)
    in file primitives/Tensor/tensor/tensor.C at line 178
    complex eigenvalues detected for tensor: (-510.43573569678 -2297.6133504045 28336.950662777 1416.7666143509 -222.29602752362 -7357.8027129072 -38182.712491011 -97.762000199701 -6902.3063563641)
--> FOAM Warning : 
    From function eigenValues(const tensor&)
    in file primitives/Tensor/tensor/tensor.C at line 178
    complex eigenvalues detected for tensor: (210.1181860198 -3062.5515877765 26038.628452463 2158.7834651326 488.36128692703 -6564.8388974297 -34740.74909591 -10.710711793937 -8701.5039254569)
--> FOAM Warning : 
    From function eigenValues(const tensor&)
    in file primitives/Tensor/tensor/tensor.C at line 178
    complex eigenvalues detected for tensor: (210.1181860198 -3062.5515877765 26038.628452463 2158.7834651326 488.36128692703 -6564.8388974297 -34740.74909591 -10.710711793937 -8701.5039254569)
--> FOAM Warning : 
    From function eigenValues(const tensor&)
    in file primitives/Tensor/tensor/tensor.C at line 178
    complex eigenvalues detected for tensor: (-9150.6591710173 12207.008138706 30160.734426439 6485.2924115329 -16695.557292908 -40028.649644034 -41664.798184128 32617.280485269 29990.282303414)
--> FOAM Warning : 
    From function eigenValues(const tensor&)
    in file primitives/Tensor/tensor/tensor.C at line 178
    complex eigenvalues detected for tensor: (-9150.6591710173 12207.008138706 30160.734426439 6485.2924115329 -16695.557292908 -40028.649644034 -41664.798184128 32617.280485269 29990.282303414)
--> FOAM Warning : 
    From function eigenValues(const tensor&)
    in file primitives/Tensor/tensor/tensor.C at line 178
    complex eigenvalues detected for tensor: (-9024.6303283348 10024.04985026 24461.847228608 -2829.5703906976 -11772.25450319 -22689.4448658 -39849.328061601 12589.159649525 20542.023752497)
--> FOAM Warning : 
    From function eigenValues(const tensor&)
    in file primitives/Tensor/tensor/tensor.C at line 178
    complex eigenvalues detected for tensor: (-9024.6303283348 10024.04985026 24461.847228608 -2829.5703906976 -11772.25450319 -22689.4448658 -39849.328061601 12589.159649525 20542.023752497)
--> FOAM Warning : 
    From function eigenValues(const tensor&)
    in file primitives/Tensor/tensor/tensor.C at line 178
    complex eigenvalues detected for tensor: (-8660.5999023077 8522.3451448213 25048.372201739 -5418.2423132016 -9719.2451519921 -16823.743118629 -42470.193297784 5362.9489756381 16375.295453967)
--> FOAM Warning : 
    From function eigenValues(const tensor&)
    in file primitives/Tensor/tensor/tensor.C at line 178
    complex eigenvalues detected for tensor: (-8660.5999023077 8522.3451448213 25048.372201739 -5418.2423132016 -9719.2451519921 -16823.743118629 -42470.193297784 5362.9489756381 16375.295453967)
--> FOAM Warning : 
    From function eigenValues(const tensor&)
    in file primitives/Tensor/tensor/tensor.C at line 178
    complex eigenvalues detected for tensor: (-7981.1697475743 7131.1669710324 26930.881199849 -5881.2762214721 -8298.2897788556 -14140.23862306 -45138.70258901 2167.5964956317 13202.697522473)
--> FOAM Warning : 
    From function eigenValues(const tensor&)
    in file primitives/Tensor/tensor/tensor.C at line 178
    complex eigenvalues detected for tensor: (-7981.1697475743 7131.1669710324 26930.881199849 -5881.2762214721 -8298.2897788556 -14140.23862306 -45138.70258901 2167.5964956317 13202.697522473)
--> FOAM Warning : 
    From function eigenValues(const tensor&)
    in file primitives/Tensor/tensor/tensor.C at line 178
    complex eigenvalues detected for tensor: (-7107.093902425 5783.2520340512 28829.470086857 -5444.1745448995 -7066.6607400169 -12616.996035848 -47044.479482937 646.37524008401 10299.466937101)
--> FOAM Warning : 
    From function eigenValues(const tensor&)
    in file primitives/Tensor/tensor/tensor.C at line 178
    complex eigenvalues detected for tensor: (-7107.093902425 5783.2520340512 28829.470086857 -5444.1745448995 -7066.6607400169 -12616.996035848 -47044.479482937 646.37524008401 10299.466937101)
--> FOAM Warning : 
    From function eigenValues(const tensor&)
    in file primitives/Tensor/tensor/tensor.C at line 178
    complex eigenvalues detected for tensor: (-6139.0882717356 4462.6224458215 30334.97110531 -4598.9005653217 -5896.7155961154 -11588.316906792 -48068.54950437 -49.319229159575 7507.6394800121)
--> FOAM Warning : 
    From function eigenValues(const tensor&)
    in file primitives/Tensor/tensor/tensor.C at line 178
    complex eigenvalues detected for tensor: (-6139.0882717356 4462.6224458215 30334.97110531 -4598.9005653217 -5896.7155961154 -11588.316906792 -48068.54950437 -49.319229159575 7507.6394800121)
--> FOAM Warning : 
    From function eigenValues(const tensor&)
    in file primitives/Tensor/tensor/tensor.C at line 178
    complex eigenvalues detected for tensor: (-5140.7534794903 3179.1839591617 31298.384049351 -3569.1018736358 -4785.4397602051 -10775.717397676 -48241.422338723 -306.79472711113 4816.5690994801)
--> FOAM Warning : 
    From function eigenValues(const tensor&)
    in file primitives/Tensor/tensor/tensor.C at line 178
    complex eigenvalues detected for tensor: (-5140.7534794903 3179.1839591617 31298.384049351 -3569.1018736358 -4785.4397602051 -10775.717397676 -48241.422338723 -306.79472711113 4816.5690994801)
--> FOAM Warning : 
    From function eigenValues(const tensor&)
    in file primitives/Tensor/tensor/tensor.C at line 178
    complex eigenvalues detected for tensor: (-4152.3678183675 1948.7931446656 31673.335412285 -2465.4599927166 -3756.7102046345 -10051.647026901 -47626.147638571 -341.15694206482 2250.918091749)
--> FOAM Warning : 
    From function eigenValues(const tensor&)
    in file primitives/Tensor/tensor/tensor.C at line 178
    complex eigenvalues detected for tensor: (-4152.3678183675 1948.7931446656 31673.335412285 -2465.4599927166 -3756.7102046345 -10051.647026901 -47626.147638571 -341.15694206482 2250.918091749)
--> FOAM Warning : 
    From function eigenValues(const tensor&)
    in file primitives/Tensor/tensor/tensor.C at line 178
    complex eigenvalues detected for tensor: (-3203.912657589 783.90223494313 31461.579319816 -1361.8330393688 -2806.3409984294 -9356.8571783457 -46295.955970526 -277.50044017012 -162.37656133981)
--> FOAM Warning : 
    From function eigenValues(const tensor&)
    in file primitives/Tensor/tensor/tensor.C at line 178
    complex eigenvalues detected for tensor: (-3203.912657589 783.90223494313 31461.579319816 -1361.8330393688 -2806.3409984294 -9356.8571783457 -46295.955970526 -277.50044017012 -162.37656133981)
--> FOAM Warning : 
    From function eigenValues(const tensor&)
    in file primitives/Tensor/tensor/tensor.C at line 178
    complex eigenvalues detected for tensor: (-2316.5452609841 -302.93426589841 30686.604446026 -312.03003729076 -1921.2425633992 -8658.1788306689 -44322.007729485 -178.38339274621 -2401.8492435721)
--> FOAM Warning : 
    From function eigenValues(const tensor&)
    in file primitives/Tensor/tensor/tensor.C at line 178
    complex eigenvalues detected for tensor: (-2316.5452609841 -302.93426589841 30686.604446026 -312.03003729076 -1921.2425633992 -8658.1788306689 -44322.007729485 -178.38339274621 -2401.8492435721)
--> FOAM Warning : 
    From function eigenValues(const tensor&)
    in file primitives/Tensor/tensor/tensor.C at line 178
    complex eigenvalues detected for tensor: (-1501.8921586784 -1301.1956859245 29385.001771277 656.81620159262 -1103.9924383681 -7936.9499913904 -41772.065232305 -72.393189843395 -4451.2494568935)
--> FOAM Warning : 
    From function eigenValues(const tensor&)
    in file primitives/Tensor/tensor/tensor.C at line 178
    complex eigenvalues detected for tensor: (-1501.8921586784 -1301.1956859245 29385.001771277 656.81620159262 -1103.9924383681 -7936.9499913904 -41772.065232305 -72.393189843395 -4451.2494568935)
--> FOAM Warning : 
    From function eigenValues(const tensor&)
    in file primitives/Tensor/tensor/tensor.C at line 178
    complex eigenvalues detected for tensor: (-764.68464137113 -2206.3776486498 27603.399144581 1538.9306682357 -367.68090313867 -7188.5738593491 -38715.550422663 25.408919935243 -6299.8870234026)
--> FOAM Warning : 
    From function eigenValues(const tensor&)
    in file primitives/Tensor/tensor/tensor.C at line 178
    complex eigenvalues detected for tensor: (-764.68464137113 -2206.3776486498 27603.399144581 1538.9306682357 -367.68090313867 -7188.5738593491 -38715.550422663 25.408919935243 -6299.8870234026)
--> FOAM Warning : 
    From function eigenValues(const tensor&)
    in file primitives/Tensor/tensor/tensor.C at line 178
    complex eigenvalues detected for tensor: (-107.4011120523 -3015.4656750269 25391.562796479 2334.4407318348 276.81348032243 -6414.5499085335 -35214.524840532 103.7668548734 -7942.7525992679)
--> FOAM Warning : 
    From function eigenValues(const tensor&)
    in file primitives/Tensor/tensor/tensor.C at line 178
    complex eigenvalues detected for tensor: (-107.4011120523 -3015.4656750269 25391.562796479 2334.4407318348 276.81348032243 -6414.5499085335 -35214.524840532 103.7668548734 -7942.7525992679)
--> FOAM Warning : 
    From function eigenValues(const tensor&)
    in file primitives/Tensor/tensor/tensor.C at line 178
    complex eigenvalues detected for tensor: (466.84896515877 -3726.1621970449 22799.260129474 3037.0164624962 833.19732774355 -5616.421383244 -31323.841153554 152.93150851647 -9377.8079532179)
--> FOAM Warning : 
    From function eigenValues(const tensor&)
    in file primitives/Tensor/tensor/tensor.C at line 178
    complex eigenvalues detected for tensor: (466.84896515877 -3726.1621970449 22799.260129474 3037.0164624962 833.19732774355 -5616.421383244 -31323.841153554 152.93150851647 -9377.8079532179)
--> FOAM Warning : 
    From function eigenValues(const tensor&)
    in file primitives/Tensor/tensor/tensor.C at line 178
    complex eigenvalues detected for tensor: (-7137.834014014 10906.605816822 24974.152391014 4916.447490775 -16575.648893144 -38397.856111281 -37749.701678381 31472.912772326 27058.316427609)
--> FOAM Warning : 
    From function eigenValues(const tensor&)
    in file primitives/Tensor/tensor/tensor.C at line 178
    complex eigenvalues detected for tensor: (-7137.834014014 10906.605816822 24974.152391014 4916.447490775 -16575.648893144 -38397.856111281 -37749.701678381 31472.912772326 27058.316427609)
--> FOAM Warning : 
    From function eigenValues(const tensor&)
    in file primitives/Tensor/tensor/tensor.C at line 178
    complex eigenvalues detected for tensor: (-7845.8020280247 9853.8391539192 21693.765566631 -3778.8098779952 -11258.786131981 -21863.489518378 -38797.310636622 12434.024788603 18419.24216506)
--> FOAM Warning : 
    From function eigenValues(const tensor&)
    in file primitives/Tensor/tensor/tensor.C at line 178
    complex eigenvalues detected for tensor: (-7845.8020280247 9853.8391539192 21693.765566631 -3778.8098779952 -11258.786131981 -21863.489518378 -38797.310636622 12434.024788603 18419.24216506)
--> FOAM Warning : 
    From function eigenValues(const tensor&)
    in file primitives/Tensor/tensor/tensor.C at line 178
    complex eigenvalues detected for tensor: (-7811.4149910704 8820.7932648847 23057.971599308 -6170.8557167209 -9094.8696918083 -16172.452486846 -42385.283602793 5494.0621874637 14640.21611065)
--> FOAM Warning : 
    From function eigenValues(const tensor&)
    in file primitives/Tensor/tensor/tensor.C at line 178
    complex eigenvalues detected for tensor: (-7811.4149910704 8820.7932648847 23057.971599308 -6170.8557167209 -9094.8696918083 -16172.452486846 -42385.283602793 5494.0621874637 14640.21611065)
--> FOAM Warning : 
    From function eigenValues(const tensor&)
    in file primitives/Tensor/tensor/tensor.C at line 178
    complex eigenvalues detected for tensor: (-7352.8370970841 7610.7422728904 25288.328995053 -6508.7353495143 -7666.5624465958 -13557.281810761 -45494.892202482 2398.9425886116 11798.590152589)
--> FOAM Warning : 
    From function eigenValues(const tensor&)
    in file primitives/Tensor/tensor/tensor.C at line 178
    complex eigenvalues detected for tensor: (-7352.8370970841 7610.7422728904 25288.328995053 -6508.7353495143 -7666.5624465958 -13557.281810761 -45494.892202482 2398.9425886116 11798.590152589)
--> FOAM Warning : 
    From function eigenValues(const tensor&)
    in file primitives/Tensor/tensor/tensor.C at line 178
    complex eigenvalues detected for tensor: (-6648.3023282636 6302.5132806222 27392.605949505 -5962.2483848201 -6492.4159414442 -12070.143027797 -47613.721123266 916.98179022755 9210.4325987931)
--> FOAM Warning : 
    From function eigenValues(const tensor&)
    in file primitives/Tensor/tensor/tensor.C at line 178
    complex eigenvalues detected for tensor: (-6648.3023282636 6302.5132806222 27392.605949505 -5962.2483848201 -6492.4159414442 -12070.143027797 -47613.721123266 916.98179022755 9210.4325987931)
--> FOAM Warning : 
    From function eigenValues(const tensor&)
    in file primitives/Tensor/tensor/tensor.C at line 178
    complex eigenvalues detected for tensor: (-5811.2607131235 4949.0238918962 29046.767188457 -5010.9969156525 -5430.825451234 -11072.413880137 -48733.766737999 235.03527727789 6720.1713491054)
--> FOAM Warning : 
    From function eigenValues(const tensor&)
    in file primitives/Tensor/tensor/tensor.C at line 178
    complex eigenvalues detected for tensor: (-5811.2607131235 4949.0238918962 29046.767188457 -5010.9969156525 -5430.825451234 -11072.413880137 -48733.766737999 235.03527727789 6720.1713491054)
--> FOAM Warning : 
    From function eigenValues(const tensor&)
    in file primitives/Tensor/tensor/tensor.C at line 178
    complex eigenvalues detected for tensor: (-4924.7124448968 3603.0237628937 30134.534988921 -3880.0852873838 -4443.1582139678 -10301.33804021 -48940.024237405 -20.547630039943 4315.1944902547)
--> FOAM Warning : 
    From function eigenValues(const tensor&)
    in file primitives/Tensor/tensor/tensor.C at line 178
    complex eigenvalues detected for tensor: (-4924.7124448968 3603.0237628937 30134.534988921 -3880.0852873838 -4443.1582139678 -10301.33804021 -48940.024237405 -20.547630039943 4315.1944902547)
--> FOAM Warning : 
    From function eigenValues(const tensor&)
    in file primitives/Tensor/tensor/tensor.C at line 178
    complex eigenvalues detected for tensor: (-4045.0852136884 2306.4927142906 30619.386447441 -2687.083717413 -3520.0017108513 -9622.9342193558 -48319.884159263 -61.743541635397 2018.1910951419)
--> FOAM Warning : 
    From function eigenValues(const tensor&)
    in file primitives/Tensor/tensor/tensor.C at line 178
    complex eigenvalues detected for tensor: (-4045.0852136884 2306.4927142906 30619.386447441 -2687.083717413 -3520.0017108513 -9622.9342193558 -48319.884159263 -61.743541635397 2018.1910951419)
--> FOAM Warning : 
    From function eigenValues(const tensor&)
    in file primitives/Tensor/tensor/tensor.C at line 178
    complex eigenvalues detected for tensor: (-3200.903653245 1080.9450485624 30505.678456564 -1509.036437549 -2658.9031371723 -8966.1621189522 -46958.844859277 -12.515405286659 -145.41734697138)
--> FOAM Warning : 
    From function eigenValues(const tensor&)
    in file primitives/Tensor/tensor/tensor.C at line 178
    complex eigenvalues detected for tensor: (-3200.903653245 1080.9450485624 30505.678456564 -1509.036437549 -2658.9031371723 -8966.1621189522 -46958.844859277 -12.515405286659 -145.41734697138)
--> FOAM Warning : 
    From function eigenValues(const tensor&)
    in file primitives/Tensor/tensor/tensor.C at line 178
    complex eigenvalues detected for tensor: (-2406.0019057674 -64.49560265986 29821.388523556 -393.68977947219 -1861.6445535779 -8298.9146169657 -44938.600884572 67.372213781923 -2155.2874727167)
--> FOAM Warning : 
    From function eigenValues(const tensor&)
    in file primitives/Tensor/tensor/tensor.C at line 178
    complex eigenvalues detected for tensor: (-2406.0019057674 -64.49560265986 29821.388523556 -393.68977947219 -1861.6445535779 -8298.9146169657 -44938.600884572 67.372213781923 -2155.2874727167)
--> FOAM Warning : 
    From function eigenValues(const tensor&)
    in file primitives/Tensor/tensor/tensor.C at line 178
    complex eigenvalues detected for tensor: (-1671.1439321571 -1121.3701862942 28607.688633468 637.00969976523 -1132.6717317929 -7610.5702587274 -42335.353384535 152.65991756035 -3995.9432689938)
--> FOAM Warning : 
    From function eigenValues(const tensor&)
    in file primitives/Tensor/tensor/tensor.C at line 178
    complex eigenvalues detected for tensor: (-1671.1439321571 -1121.3701862942 28607.688633468 637.00969976523 -1132.6717317929 -7610.5702587274 -42335.353384535 152.65991756035 -3995.9432689938)
--> FOAM Warning : 
    From function eigenValues(const tensor&)
    in file primitives/Tensor/tensor/tensor.C at line 178
    complex eigenvalues detected for tensor: (-1005.5530432602 -2079.7677721245 26913.04175317 1574.3758499828 -476.07001380568 -6899.9640404031 -39222.890654562 229.6962567185 -5657.0195803279)
--> FOAM Warning : 
    From function eigenValues(const tensor&)
    in file primitives/Tensor/tensor/tensor.C at line 178
    complex eigenvalues detected for tensor: (-1005.5530432602 -2079.7677721245 26913.04175317 1574.3758499828 -476.07001380568 -6899.9640404031 -39222.890654562 229.6962567185 -5657.0195803279)
--> FOAM Warning : 
    From function eigenValues(const tensor&)
    in file primitives/Tensor/tensor/tensor.C at line 178
    complex eigenvalues detected for tensor: (-415.78426495587 -2932.5378967236 24786.585534686 2415.1082965202 105.96284880371 -6164.6641494847 -35663.873570898 286.5274778583 -7133.4661219584)
--> FOAM Warning : 
    From function eigenValues(const tensor&)
    in file primitives/Tensor/tensor/tensor.C at line 178
    complex eigenvalues detected for tensor: (-415.78426495587 -2932.5378967236 24786.585534686 2415.1082965202 105.96284880371 -6164.6641494847 -35663.873570898 286.5274778583 -7133.4661219584)
--> FOAM Warning : 
    From function eigenValues(const tensor&)
    in file primitives/Tensor/tensor/tensor.C at line 178
    complex eigenvalues detected for tensor: (97.114163121793 -3678.9432591562 22276.448391634 3154.1217713002 613.09319125332 -5400.6411679336 -31712.486169884 312.69963387946 -8423.173345575)
--> FOAM Warning : 
    From function eigenValues(const tensor&)
    in file primitives/Tensor/tensor/tensor.C at line 178
    complex eigenvalues detected for tensor: (97.114163121793 -3678.9432591562 22276.448391634 3154.1217713002 613.09319125332 -5400.6411679336 -31712.486169884 312.69963387946 -8423.173345575)
--> FOAM Warning : 
    From function eigenValues(const tensor&)
    in file primitives/Tensor/tensor/tensor.C at line 178
    complex eigenvalues detected for tensor: (-5423.0404894867 9498.0645387558 20135.200452324 3281.5066251415 -16019.30276812 -36036.738934326 -34061.65156026 29806.222147025 23946.579477501)
--> FOAM Warning : 
    From function eigenValues(const tensor&)
    in file primitives/Tensor/tensor/tensor.C at line 178
    complex eigenvalues detected for tensor: (-5423.0404894867 9498.0645387558 20135.200452324 3281.5066251415 -16019.30276812 -36036.738934326 -34061.65156026 29806.222147025 23946.579477501)
--> FOAM Warning : 
    From function eigenValues(const tensor&)
    in file primitives/Tensor/tensor/tensor.C at line 178
    complex eigenvalues detected for tensor: (-6746.7138197727 9584.6462766828 19075.092254548 -4685.2494430494 -10559.920114316 -20582.805621391 -37784.591264 12079.355349962 16170.063040352)
--> FOAM Warning : 
    From function eigenValues(const tensor&)
    in file primitives/Tensor/tensor/tensor.C at line 178
    complex eigenvalues detected for tensor: (-6746.7138197727 9584.6462766828 19075.092254548 -4685.2494430494 -10559.920114316 -20582.805621391 -37784.591264 12079.355349962 16170.063040352)
--> FOAM Warning : 
    From function eigenValues(const tensor&)
    in file primitives/Tensor/tensor/tensor.C at line 178
    complex eigenvalues detected for tensor: (-6962.0978702097 8995.5726740916 21188.2631735 -6845.1079838113 -8400.1894502151 -15191.094360715 -42278.906896197 5586.1346727516 12816.648380924)
--> FOAM Warning : 
    From function eigenValues(const tensor&)
    in file primitives/Tensor/tensor/tensor.C at line 178
    complex eigenvalues detected for tensor: (-6962.0978702097 8995.5726740916 21188.2631735 -6845.1079838113 -8400.1894502151 -15191.094360715 -42278.906896197 5586.1346727516 12816.648380924)
--> FOAM Warning : 
    From function eigenValues(const tensor&)
    in file primitives/Tensor/tensor/tensor.C at line 178
    complex eigenvalues detected for tensor: (-6674.6008131557 7955.1774085989 23758.998878866 -7050.5600503209 -7035.6540285958 -12707.370123994 -45806.266878261 2672.4680437793 10323.850926467)
--> FOAM Warning : 
    From function eigenValues(const tensor&)
    in file primitives/Tensor/tensor/tensor.C at line 178
    complex eigenvalues detected for tensor: (-6674.6008131557 7955.1774085989 23758.998878866 -7050.5600503209 -7035.6540285958 -12707.370123994 -45806.266878261 2672.4680437793 10323.850926467)
--> FOAM Warning : 
    From function eigenValues(const tensor&)
    in file primitives/Tensor/tensor/tensor.C at line 178
    complex eigenvalues detected for tensor: (-6115.3488480619 6691.3793487792 26063.525030058 -6397.7920337251 -5957.149662769 -11305.995949982 -48133.586776756 1275.2237957048 8064.7297532727)
--> FOAM Warning : 
    From function eigenValues(const tensor&)
    in file primitives/Tensor/tensor/tensor.C at line 178
    complex eigenvalues detected for tensor: (-6115.3488480619 6691.3793487792 26063.525030058 -6397.7920337251 -5957.149662769 -11305.995949982 -48133.586776756 1275.2237957048 8064.7297532727)
--> FOAM Warning : 
    From function eigenValues(const tensor&)
    in file primitives/Tensor/tensor/tensor.C at line 178
    complex eigenvalues detected for tensor: (-5412.9884978346 5325.5665892385 27859.518155334 -5344.7655783291 -5005.7456786316 -10375.632387545 -49350.506592486 628.68572716093 5890.7730300308)
--> FOAM Warning : 
    From function eigenValues(const tensor&)
    in file primitives/Tensor/tensor/tensor.C at line 178
    complex eigenvalues detected for tensor: (-5412.9884978346 5325.5665892385 27859.518155334 -5344.7655783291 -5005.7456786316 -10375.632387545 -49350.506592486 628.68572716093 5890.7730300308)
--> FOAM Warning : 
    From function eigenValues(const tensor&)
    in file primitives/Tensor/tensor/tensor.C at line 178
    complex eigenvalues detected for tensor: (-4651.7833979229 3941.1925863752 29060.990285645 -4120.4985328853 -4130.8000905407 -9661.9293928768 -49587.946405767 376.93186913408 3787.0635364039)
--> FOAM Warning : 
    From function eigenValues(const tensor&)
    in file primitives/Tensor/tensor/tensor.C at line 178
    complex eigenvalues detected for tensor: (-4651.7833979229 3941.1925863752 29060.990285645 -4120.4985328853 -4130.8000905407 -9661.9293928768 -49587.946405767 376.93186913408 3787.0635364039)
--> FOAM Warning : 
    From function eigenValues(const tensor&)
    in file primitives/Tensor/tensor/tensor.C at line 178
    complex eigenvalues detected for tensor: (-3885.8064909784 2593.6887422895 29644.731015123 -2851.4888260469 -3316.0037344303 -9035.4079527555 -48960.300757154 321.93987989156 1773.0354279392)
--> FOAM Warning : 
    From function eigenValues(const tensor&)
    in file primitives/Tensor/tensor/tensor.C at line 178
    complex eigenvalues detected for tensor: (-3885.8064909784 2593.6887422895 29644.731015123 -2851.4888260469 -3316.0037344303 -9035.4079527555 -48960.300757154 321.93987989156 1773.0354279392)
--> FOAM Warning : 
    From function eigenValues(const tensor&)
    in file primitives/Tensor/tensor/tensor.C at line 178
    complex eigenvalues detected for tensor: (-3144.930962511 1312.7127840774 29621.468525624 -1610.648148129 -2557.0151714459 -8428.330908678 -47570.363946784 350.64167318093 -127.57430722261)
--> FOAM Warning : 
    From function eigenValues(const tensor&)
    in file primitives/Tensor/tensor/tensor.C at line 178
    complex eigenvalues detected for tensor: (-3144.930962511 1312.7127840774 29621.468525624 -1610.648148129 -2557.0151714459 -8428.330908678 -47570.363946784 350.64167318093 -127.57430722261)
--> FOAM Warning : 
    From function eigenValues(const tensor&)
    in file primitives/Tensor/tensor/tensor.C at line 178
    complex eigenvalues detected for tensor: (-2445.4769893992 113.1404643414 29022.564245354 -436.73890245586 -1855.2479423055 -7810.1849664475 -45509.40036393 406.73430516222 -1895.1640536906)
--> FOAM Warning : 
    From function eigenValues(const tensor&)
    in file primitives/Tensor/tensor/tensor.C at line 178
    complex eigenvalues detected for tensor: (-2445.4769893992 113.1404643414 29022.564245354 -436.73890245586 -1855.2479423055 -7810.1849664475 -45509.40036393 406.73430516222 -1895.1640536906)
--> FOAM Warning : 
    From function eigenValues(const tensor&)
    in file primitives/Tensor/tensor/tensor.C at line 178
    complex eigenvalues detected for tensor: (-1798.4080836778 -993.95156239758 27891.11857768 650.44041805525 -1214.2617007564 -7170.3705683839 -42858.047839206 464.58983858287 -3515.1559381817)
--> FOAM Warning : 
    From function eigenValues(const tensor&)
    in file primitives/Tensor/tensor/tensor.C at line 178
    complex eigenvalues detected for tensor: (-1798.4080836778 -993.95156239758 27891.11857768 650.44041805525 -1214.2617007564 -7170.3705683839 -42858.047839206 464.58983858287 -3515.1559381817)
--> FOAM Warning : 
    From function eigenValues(const tensor&)
    in file primitives/Tensor/tensor/tensor.C at line 178
    complex eigenvalues detected for tensor: (-1211.8753893296 -1998.4259366247 26276.204909902 1638.6210233922 -637.01843730112 -6507.2635025404 -39692.510980516 510.55887494533 -4977.9518466377)
--> FOAM Warning : 
    From function eigenValues(const tensor&)
    in file primitives/Tensor/tensor/tensor.C at line 178
    complex eigenvalues detected for tensor: (-1211.8753893296 -1998.4259366247 26276.204909902 1638.6210233922 -637.01843730112 -6507.2635025404 -39692.510980516 510.55887494533 -4977.9518466377)
--> FOAM Warning : 
    From function eigenValues(const tensor&)
    in file primitives/Tensor/tensor/tensor.C at line 178
    complex eigenvalues detected for tensor: (-691.28594234931 -2893.3664486176 24227.124355481 2520.545205701 -124.9721127461 -5818.8378524654 -36077.725642388 534.52603720094 -6278.5985504464)
--> FOAM Warning : 
    From function eigenValues(const tensor&)
    in file primitives/Tensor/tensor/tensor.C at line 178
    complex eigenvalues detected for tensor: (-691.28594234931 -2893.3664486176 24227.124355481 2520.545205701 -124.9721127461 -5818.8378524654 -36077.725642388 534.52603720094 -6278.5985504464)
--> FOAM Warning : 
    From function eigenValues(const tensor&)
    in file primitives/Tensor/tensor/tensor.C at line 178
    complex eigenvalues detected for tensor: (-238.18273763047 -3676.9178643643 21792.792370568 3292.4369221379 321.54030842514 -5101.6749792692 -32070.068259729 528.61573084256 -7414.902416815)
--> FOAM Warning : 
    From function eigenValues(const tensor&)
    in file primitives/Tensor/tensor/tensor.C at line 178
    complex eigenvalues detected for tensor: (-238.18273763047 -3676.9178643643 21792.792370568 3292.4369221379 321.54030842514 -5101.6749792692 -32070.068259729 528.61573084256 -7414.902416815)
--> FOAM Warning : 
    From function eigenValues(const tensor&)
    in file primitives/Tensor/tensor/tensor.C at line 178
    complex eigenvalues detected for tensor: (-4022.2936500008 8074.7375682277 15746.961788817 1665.9362773496 -15027.924614314 -33016.809369919 -30687.607735651 27660.585490935 20675.211386657)
--> FOAM Warning : 
    From function eigenValues(const tensor&)
    in file primitives/Tensor/tensor/tensor.C at line 178
    complex eigenvalues detected for tensor: (-4022.2936500008 8074.7375682277 15746.961788817 1665.9362773496 -15027.924614314 -33016.809369919 -30687.607735651 27660.585490935 20675.211386657)
--> FOAM Warning : 
    From function eigenValues(const tensor&)
    in file primitives/Tensor/tensor/tensor.C at line 178
    complex eigenvalues detected for tensor: (-5742.9593775119 9273.0884052476 16676.875474605 -5524.7953590731 -9673.0902945885 -18893.051784382 -36839.483947291 11554.742851097 13808.810505026)
--> FOAM Warning : 
    From function eigenValues(const tensor&)
    in file primitives/Tensor/tensor/tensor.C at line 178
    complex eigenvalues detected for tensor: (-5742.9593775119 9273.0884052476 16676.875474605 -5524.7953590731 -9673.0902945885 -18893.051784382 -36839.483947291 11554.742851097 13808.810505026)
--> FOAM Warning : 
    From function eigenValues(const tensor&)
    in file primitives/Tensor/tensor/tensor.C at line 178
    complex eigenvalues detected for tensor: (-6137.5113836238 9102.654567692 19484.597480793 -7426.2767230776 -7612.6754624899 -13918.512769829 -42160.185178748 5649.6121150728 10912.803373893)
--> FOAM Warning : 
    From function eigenValues(const tensor&)
    in file primitives/Tensor/tensor/tensor.C at line 178
    complex eigenvalues detected for tensor: (-6137.5113836238 9102.654567692 19484.597480793 -7426.2767230776 -7612.6754624899 -13918.512769829 -42160.185178748 5649.6121150728 10912.803373893)
--> FOAM Warning : 
    From function eigenValues(const tensor&)
    in file primitives/Tensor/tensor/tensor.C at line 178
    complex eigenvalues detected for tensor: (-5989.5313902609 8227.9091707636 22377.171158261 -7487.9368658241 -6358.9248689236 -11624.126830446 -46071.243744665 2989.0463685964 8787.3935045504)
--> FOAM Warning : 
    From function eigenValues(const tensor&)
    in file primitives/Tensor/tensor/tensor.C at line 178
    complex eigenvalues detected for tensor: (-5989.5313902609 8227.9091707636 22377.171158261 -7487.9368658241 -6358.9248689236 -11624.126830446 -46071.243744665 2989.0463685964 8787.3935045504)
--> FOAM Warning : 
    From function eigenValues(const tensor&)
    in file primitives/Tensor/tensor/tensor.C at line 178
    complex eigenvalues detected for tensor: (-5560.7062506507 7013.2411025633 24869.86335371 -6729.5988775824 -5401.6789336029 -10342.327047111 -48591.4031388 1710.6824576791 6870.9534617546)
--> FOAM Warning : 
    From function eigenValues(const tensor&)
    in file primitives/Tensor/tensor/tensor.C at line 178
    complex eigenvalues detected for tensor: (-5560.7062506507 7013.2411025633 24869.86335371 -6729.5988775824 -5401.6789336029 -10342.327047111 -48591.4031388 1710.6824576791 6870.9534617546)
--> FOAM Warning : 
    From function eigenValues(const tensor&)
    in file primitives/Tensor/tensor/tensor.C at line 178
    complex eigenvalues detected for tensor: (-4986.0104428675 5642.6647160992 26796.718926053 -5589.1398495852 -4574.9586659497 -9502.0629764002 -49898.714871211 1113.8527918825 5025.5614052843)
--> FOAM Warning : 
    From function eigenValues(const tensor&)
    in file primitives/Tensor/tensor/tensor.C at line 178
    complex eigenvalues detected for tensor: (-4986.0104428675 5642.6647160992 26796.718926053 -5589.1398495852 -4574.9586659497 -9502.0629764002 -49898.714871211 1113.8527918825 5025.5614052843)
--> FOAM Warning : 
    From function eigenValues(const tensor&)
    in file primitives/Tensor/tensor/tensor.C at line 178
    complex eigenvalues detected for tensor: (-4347.6953684152 4227.5169659878 28100.710756963 -4290.0951002843 -3822.1758828346 -8862.2652456807 -50165.613844112 870.53746334744 3235.2642767889)
--> FOAM Warning : 
    From function eigenValues(const tensor&)
    in file primitives/Tensor/tensor/tensor.C at line 178
    complex eigenvalues detected for tensor: (-4347.6953684152 4227.5169659878 28100.710756963 -4290.0951002843 -3822.1758828346 -8862.2652456807 -50165.613844112 870.53746334744 3235.2642767889)
--> FOAM Warning : 
    From function eigenValues(const tensor&)
    in file primitives/Tensor/tensor/tensor.C at line 178
    complex eigenvalues detected for tensor: (-3696.6899585483 2835.973989195 28772.515748279 -2956.7870431001 -3123.595459311 -8301.5667397484 -49531.917889294 801.26514922908 1516.6445613107)
--> FOAM Warning : 
    From function eigenValues(const tensor&)
    in file primitives/Tensor/tensor/tensor.C at line 178
    complex eigenvalues detected for tensor: (-3696.6899585483 2835.973989195 28772.515748279 -2956.7870431001 -3123.595459311 -8301.5667397484 -49531.917889294 801.26514922908 1516.6445613107)
--> FOAM Warning : 
    From function eigenValues(const tensor&)
    in file primitives/Tensor/tensor/tensor.C at line 178
    complex eigenvalues detected for tensor: (-3062.5384212993 1506.0362520807 28830.037709675 -1658.7531437088 -2473.6071934471 -7757.6190731191 -48116.733487783 805.24031660753 -108.75122834098)
--> FOAM Warning : 
    From function eigenValues(const tensor&)
    in file primitives/Tensor/tensor/tensor.C at line 178
    complex eigenvalues detected for tensor: (-3062.5384212993 1506.0362520807 28830.037709675 -1658.7531437088 -2473.6071934471 -7757.6190731191 -48116.733487783 805.24031660753 -108.75122834098)
--> FOAM Warning : 
    From function eigenValues(const tensor&)
    in file primitives/Tensor/tensor/tensor.C at line 178
    complex eigenvalues detected for tensor: (-2462.2717609676 258.49329926396 28307.860292434 -432.54741393582 -1872.7793026807 -7201.7544631615 -46019.889719927 830.94644229498 -1622.7632072584)
--> FOAM Warning : 
    From function eigenValues(const tensor&)
    in file primitives/Tensor/tensor/tensor.C at line 178
    complex eigenvalues detected for tensor: (-2462.2717609676 258.49329926396 28307.860292434 -432.54741393582 -1872.7793026807 -7201.7544631615 -46019.889719927 830.94644229498 -1622.7632072584)
--> FOAM Warning : 
    From function eigenValues(const tensor&)
    in file primitives/Tensor/tensor/tensor.C at line 178
    complex eigenvalues detected for tensor: (-1906.5136286029 -892.92553380078 27250.170332863 702.12660271478 -1323.903061921 -6623.0418932283 -43325.749475102 853.8122958197 -3011.9388967941)
--> FOAM Warning : 
    From function eigenValues(const tensor&)
    in file primitives/Tensor/tensor/tensor.C at line 178
    complex eigenvalues detected for tensor: (-1906.5136286029 -892.92553380078 27250.170332863 702.12660271478 -1323.903061921 -6623.0418932283 -43325.749475102 853.8122958197 -3011.9388967941)
--> FOAM Warning : 
    From function eigenValues(const tensor&)
    in file primitives/Tensor/tensor/tensor.C at line 178
    complex eigenvalues detected for tensor: (-1402.4598751336 -1937.7771512616 25706.223234381 1732.5446188766 -829.50035967827 -6019.2482410942 -40112.53997914 860.99443470546 -4267.2203802535)
--> FOAM Warning : 
    From function eigenValues(const tensor&)
    in file primitives/Tensor/tensor/tensor.C at line 178
    complex eigenvalues detected for tensor: (-1402.4598751336 -1937.7771512616 25706.223234381 1732.5446188766 -829.50035967827 -6019.2482410942 -40112.53997914 860.99443470546 -4267.2203802535)
--> FOAM Warning : 
    From function eigenValues(const tensor&)
    in file primitives/Tensor/tensor/tensor.C at line 178
    complex eigenvalues detected for tensor: (-954.7461682575 -2869.4861543105 23726.175489059 2651.0855200888 -390.81782318491 -5388.9558073053 -36447.478809 844.25005238562 -5383.659598788)
--> FOAM Warning : 
    From function eigenValues(const tensor&)
    in file primitives/Tensor/tensor/tensor.C at line 178
    complex eigenvalues detected for tensor: (-954.7461682575 -2869.4861543105 23726.175489059 2651.0855200888 -390.81782318491 -5388.9558073053 -36447.478809 844.25005238562 -5383.659598788)
--> FOAM Warning : 
    From function eigenValues(const tensor&)
    in file primitives/Tensor/tensor/tensor.C at line 178
    complex eigenvalues detected for tensor: (-565.01291079307 -3685.581834657 21360.093115317 3454.4452654797 -8.1018150019841 -4729.7448298415 -32389.311857207 797.66081722539 -6359.2490784649)
--> FOAM Warning : 
    From function eigenValues(const tensor&)
    in file primitives/Tensor/tensor/tensor.C at line 178
    complex eigenvalues detected for tensor: (-565.01291079307 -3685.581834657 21360.093115317 3454.4452654797 -8.1018150019841 -4729.7448298415 -32389.311857207 797.66081722539 -6359.2490784649)
--> FOAM Warning : 
    From function eigenValues(const tensor&)
    in file primitives/Tensor/tensor/tensor.C at line 178
    complex eigenvalues detected for tensor: (-2927.2066640621 6725.4449448416 11903.010582021 151.86403600453 -13628.988086437 -29417.664599021 -27700.885386621 25087.118784005 17266.298906962)
--> FOAM Warning : 
    From function eigenValues(const tensor&)
    in file primitives/Tensor/tensor/tensor.C at line 178
    complex eigenvalues detected for tensor: (-2927.2066640621 6725.4449448416 11903.010582021 151.86403600453 -13628.988086437 -29417.664599021 -27700.885386621 25087.118784005 17266.298906962)
--> FOAM Warning : 
    From function eigenValues(const tensor&)
    in file primitives/Tensor/tensor/tensor.C at line 178
    complex eigenvalues detected for tensor: (-5340.8513840683 9166.5665701135 17991.679805034 -7924.2891256757 -6738.8267304173 -12390.765042702 -42033.721775426 5687.7582858058 8938.8009030758)
--> FOAM Warning : 
    From function eigenValues(const tensor&)
    in file primitives/Tensor/tensor/tensor.C at line 178
    complex eigenvalues detected for tensor: (-5340.8513840683 9166.5665701135 17991.679805034 -7924.2891256757 -6738.8267304173 -12390.765042702 -42033.721775426 5687.7582858058 8938.8009030758)
--> FOAM Warning : 
    From function eigenValues(const tensor&)
    in file primitives/Tensor/tensor/tensor.C at line 178
    complex eigenvalues detected for tensor: (-5303.06247233 8445.1722995702 21176.302478636 -7848.5483937136 -5638.7163716728 -10337.844443755 -46284.903150739 3342.0766195089 7197.294059934)
--> FOAM Warning : 
    From function eigenValues(const tensor&)
    in file primitives/Tensor/tensor/tensor.C at line 178
    complex eigenvalues detected for tensor: (-5303.06247233 8445.1722995702 21176.302478636 -7848.5483937136 -5638.7163716728 -10337.844443755 -46284.903150739 3342.0766195089 7197.294059934)
--> FOAM Warning : 
    From function eigenValues(const tensor&)
    in file primitives/Tensor/tensor/tensor.C at line 178
    complex eigenvalues detected for tensor: (-4990.8504400504 7279.0701664154 23838.596280468 -6994.3923419706 -4826.0158567332 -9204.9011644924 -48976.11885917 2212.4680341454 5635.7398168732)
--> FOAM Warning : 
    From function eigenValues(const tensor&)
    in file primitives/Tensor/tensor/tensor.C at line 178
    complex eigenvalues detected for tensor: (-4990.8504400504 7279.0701664154 23838.596280468 -6994.3923419706 -4826.0158567332 -9204.9011644924 -48976.11885917 2212.4680341454 5635.7398168732)
--> FOAM Warning : 
    From function eigenValues(const tensor&)
    in file primitives/Tensor/tensor/tensor.C at line 178
    complex eigenvalues detected for tensor: (-4537.106755515 5907.4157248641 25881.493808642 -5778.5309993616 -4137.8620222833 -8473.8256931654 -50364.032321225 1678.3450179355 4129.7891139177)
--> FOAM Warning : 
    From function eigenValues(const tensor&)
    in file primitives/Tensor/tensor/tensor.C at line 178
    complex eigenvalues detected for tensor: (-4537.106755515 5907.4157248641 25881.493808642 -5778.5309993616 -4137.8620222833 -8473.8256931654 -50364.032321225 1678.3450179355 4129.7891139177)
--> FOAM Warning : 
    From function eigenValues(const tensor&)
    in file primitives/Tensor/tensor/tensor.C at line 178
    complex eigenvalues detected for tensor: (-4019.2525928984 4466.8869682299 27275.207079388 -4416.4526529911 -3516.6415481485 -7922.8314084712 -50658.303262311 1448.2615507896 2663.5479498794)
--> FOAM Warning : 
    From function eigenValues(const tensor&)
    in file primitives/Tensor/tensor/tensor.C at line 178
    complex eigenvalues detected for tensor: (-4019.2525928984 4466.8869682299 27275.207079388 -4416.4526529911 -3516.6415481485 -7922.8314084712 -50658.303262311 1448.2615507896 2663.5479498794)
--> FOAM Warning : 
    From function eigenValues(const tensor&)
    in file primitives/Tensor/tensor/tensor.C at line 178
    complex eigenvalues detected for tensor: (-3484.1381242038 3037.8926283787 28023.455393075 -3028.189567285 -2941.5663499098 -7441.0787876357 -50020.969896457 1364.7748902381 1250.9512449107)
--> FOAM Warning : 
    From function eigenValues(const tensor&)
    in file primitives/Tensor/tensor/tensor.C at line 178
    complex eigenvalues detected for tensor: (-3484.1381242038 3037.8926283787 28023.455393075 -3028.189567285 -2941.5663499098 -7441.0787876357 -50020.969896457 1364.7748902381 1250.9512449107)
--> FOAM Warning : 
    From function eigenValues(const tensor&)
    in file primitives/Tensor/tensor/tensor.C at line 178
[...]
--> FOAM Warning : 
    From function eigenValues(const tensor&)
    in file primitives/Tensor/tensor/tensor.C at line 178
    complex eigenvalues detected for tensor: (-1694.4676082274 -101.29568579557 38109.680022911 -554.74337418925 -1029.8278244204 1726.6410654824 -41740.013732475 7276.9021970463 298.98712035498)
--> FOAM Warning : 
    From function eigenValues(const tensor&)
    in file primitives/Tensor/tensor/tensor.C at line 178
    complex eigenvalues detected for tensor: (-1694.4676082274 -101.29568579557 38109.680022911 -554.74337418925 -1029.8278244204 1726.6410654824 -41740.013732475 7276.9021970463 298.98712035498)
--> FOAM Warning : 
    From function eigenValues(const tensor&)
    in file primitives/Tensor/tensor/tensor.C at line 178
    complex eigenvalues detected for tensor: (-3070.0778120672 -732.97236064477 36748.579184247 -7.8197479148794 -2295.6460234012 1379.3018491014 -40104.416458124 6863.3988915144 3643.4191958658)
--> FOAM Warning : 
    From function eigenValues(const tensor&)
    in file primitives/Tensor/tensor/tensor.C at line 178
    complex eigenvalues detected for tensor: (-3070.0778120672 -732.97236064477 36748.579184247 -7.8197479148794 -2295.6460234012 1379.3018491014 -40104.416458124 6863.3988915144 3643.4191958658)
--> FOAM Warning : 
    From function eigenValues(const tensor&)
    in file primitives/Tensor/tensor/tensor.C at line 178
    complex eigenvalues detected for tensor: (-4309.3293487583 -1303.2512583457 34862.158406205 505.89620292212 -3458.0309109662 1089.6010681864 -37926.758133995 6367.7362017005 6677.6819657552)
--> FOAM Warning : 
    From function eigenValues(const tensor&)
    in file primitives/Tensor/tensor/tensor.C at line 178
    complex eigenvalues detected for tensor: (-4309.3293487583 -1303.2512583457 34862.158406205 505.89620292212 -3458.0309109662 1089.6010681864 -37926.758133995 6367.7362017005 6677.6819657552)
--> FOAM Warning : 
    From function eigenValues(const tensor&)
    in file primitives/Tensor/tensor/tensor.C at line 178
    complex eigenvalues detected for tensor: (-5415.2832300024 -1811.4896955428 32498.756676464 976.52732417067 -4509.1794404097 851.41368571963 -35259.897475145 5808.6897038725 9398.7429724332)
--> FOAM Warning : 
    From function eigenValues(const tensor&)
    in file primitives/Tensor/tensor/tensor.C at line 178
    complex eigenvalues detected for tensor: (-5415.2832300024 -1811.4896955428 32498.756676464 976.52732417067 -4509.1794404097 851.41368571963 -35259.897475145 5808.6897038725 9398.7429724332)
--> FOAM Warning : 
    From function eigenValues(const tensor&)
    in file primitives/Tensor/tensor/tensor.C at line 178
    complex eigenvalues detected for tensor: (-195.4107086431 746.38490667919 38037.580933282 -1323.0304753222 188.97241917615 2854.8395401752 -43365.187758272 8064.4294663216 -3214.319312107)
--> FOAM Warning : 
    From function eigenValues(const tensor&)
    in file primitives/Tensor/tensor/tensor.C at line 178
    complex eigenvalues detected for tensor: (-195.4107086431 746.38490667919 38037.580933282 -1323.0304753222 188.97241917615 2854.8395401752 -43365.187758272 8064.4294663216 -3214.319312107)
--> FOAM Warning : 
    From function eigenValues(const tensor&)
    in file primitives/Tensor/tensor/tensor.C at line 178
    complex eigenvalues detected for tensor: (-1640.7790833171 -53.935798759436 37318.356725339 -667.93677247501 -1122.1631416909 2378.771978003 -42288.424724854 7735.9810100736 287.3642769919)
--> FOAM Warning : 
    From function eigenValues(const tensor&)
    in file primitives/Tensor/tensor/tensor.C at line 178
    complex eigenvalues detected for tensor: (-1640.7790833171 -53.935798759436 37318.356725339 -667.93677247501 -1122.1631416909 2378.771978003 -42288.424724854 7735.9810100736 287.3642769919)
--> FOAM Warning : 
    From function eigenValues(const tensor&)
    in file primitives/Tensor/tensor/tensor.C at line 178
    complex eigenvalues detected for tensor: (-2955.5061574482 -786.11931432969 36031.479849693 -33.072422051896 -2343.3625721763 1970.9612444908 -40613.845636014 7289.8167235224 3498.2666337247)
--> FOAM Warning : 
    From function eigenValues(const tensor&)
    in file primitives/Tensor/tensor/tensor.C at line 178
    complex eigenvalues detected for tensor: (-2955.5061574482 -786.11931432969 36031.479849693 -33.072422051896 -2343.3625721763 1970.9612444908 -40613.845636014 7289.8167235224 3498.2666337247)
--> FOAM Warning : 
    From function eigenValues(const tensor&)
    in file primitives/Tensor/tensor/tensor.C at line 178
    complex eigenvalues detected for tensor: (-4141.4267966987 -1447.9248899359 34217.048506009 563.36077903723 -3462.9806617676 1621.8129552201 -38391.574284847 6757.5220808718 6411.1120924439)
--> FOAM Warning : 
    From function eigenValues(const tensor&)
    in file primitives/Tensor/tensor/tensor.C at line 178
    complex eigenvalues detected for tensor: (-4141.4267966987 -1447.9248899359 34217.048506009 563.36077903723 -3462.9806617676 1621.8129552201 -38391.574284847 6757.5220808718 6411.1120924439)
--> FOAM Warning : 
    From function eigenValues(const tensor&)
    in file primitives/Tensor/tensor/tensor.C at line 178
    complex eigenvalues detected for tensor: (-5200.650185748 -2038.2985123123 31924.237453043 1109.9866192866 -4474.355391793 1324.9094619237 -35676.957754058 6159.5057748194 9023.0625347481)
--> FOAM Warning : 
    From function eigenValues(const tensor&)
    in file primitives/Tensor/tensor/tensor.C at line 178
    complex eigenvalues detected for tensor: (-5200.650185748 -2038.2985123123 31924.237453043 1109.9866192866 -4474.355391793 1324.9094619237 -35676.957754058 6159.5057748194 9023.0625347481)
--> FOAM Warning : 
    From function eigenValues(const tensor&)
    in file primitives/Tensor/tensor/tensor.C at line 178
    complex eigenvalues detected for tensor: (-219.79708787033 935.99406263857 37067.722416143 -1530.4641824834 38.865605753674 3424.0513037309 -44010.795497819 8453.2227832119 -3061.1270563749)
--> FOAM Warning : 
    From function eigenValues(const tensor&)
    in file primitives/Tensor/tensor/tensor.C at line 178
    complex eigenvalues detected for tensor: (-219.79708787033 935.99406263857 37067.722416143 -1530.4641824834 38.865605753674 3424.0513037309 -44010.795497819 8453.2227832119 -3061.1270563749)
--> FOAM Warning : 
    From function eigenValues(const tensor&)
    in file primitives/Tensor/tensor/tensor.C at line 178
    complex eigenvalues detected for tensor: (-1585.8854820237 33.953105109304 36434.637357598 -786.07785177457 -1220.4174427081 2898.8711461051 -42901.021690546 8103.7819607384 274.17413163409)
--> FOAM Warning : 
    From function eigenValues(const tensor&)
    in file primitives/Tensor/tensor/tensor.C at line 178
    complex eigenvalues detected for tensor: (-1585.8854820237 33.953105109304 36434.637357598 -786.07785177457 -1220.4174427081 2898.8711461051 -42901.021690546 8103.7819607384 274.17413163409)
--> FOAM Warning : 
    From function eigenValues(const tensor&)
    in file primitives/Tensor/tensor/tensor.C at line 178
    complex eigenvalues detected for tensor: (-2831.153815495 -792.95880023422 35230.729139444 -65.351952251715 -2390.1208692785 2443.0969683429 -41183.100798663 7631.3259970506 3331.9837659581)
--> FOAM Warning : 
    From function eigenValues(const tensor&)
    in file primitives/Tensor/tensor/tensor.C at line 178
    complex eigenvalues detected for tensor: (-2831.153815495 -792.95880023422 35230.729139444 -65.351952251715 -2390.1208692785 2443.0969683429 -41183.100798663 7631.3259970506 3331.9837659581)
--> FOAM Warning : 
    From function eigenValues(const tensor&)
    in file primitives/Tensor/tensor/tensor.C at line 178
    complex eigenvalues detected for tensor: (-3956.0976575734 -1541.3903971711 33496.756973807 611.26964796066 -3460.5181168156 2046.5293886954 -38911.112551501 7069.7786797594 6105.5981384896)
--> FOAM Warning : 
    From function eigenValues(const tensor&)
    in file primitives/Tensor/tensor/tensor.C at line 178
    complex eigenvalues detected for tensor: (-3956.0976575734 -1541.3903971711 33496.756973807 611.26964796066 -3460.5181168156 2046.5293886954 -38911.112551501 7069.7786797594 6105.5981384896)
--> FOAM Warning : 
    From function eigenValues(const tensor&)
    in file primitives/Tensor/tensor/tensor.C at line 178
    complex eigenvalues detected for tensor: (-4961.8558008455 -2209.572720685 31282.511977446 1231.077310629 -4426.1756118054 1703.1701226336 -36143.223863744 6440.7638723923 8592.4142328223)
--> FOAM Warning : 
    From function eigenValues(const tensor&)
    in file primitives/Tensor/tensor/tensor.C at line 178
    complex eigenvalues detected for tensor: (-4961.8558008455 -2209.572720685 31282.511977446 1231.077310629 -4426.1756118054 1703.1701226336 -36143.223863744 6440.7638723923 8592.4142328223)
--> FOAM Warning : 
    From function eigenValues(const tensor&)
    in file primitives/Tensor/tensor/tensor.C at line 178
    complex eigenvalues detected for tensor: (-256.20459084731 1172.9486660052 36020.144062817 -1754.3422446759 -119.59338297819 3832.8318966145 -44708.094096421 8736.6532330857 -2889.272264109)
--> FOAM Warning : 
    From function eigenValues(const tensor&)
    in file primitives/Tensor/tensor/tensor.C at line 178
    complex eigenvalues detected for tensor: (-256.20459084731 1172.9486660052 36020.144062817 -1754.3422446759 -119.59338297819 3832.8318966145 -44708.094096421 8736.6532330857 -2889.272264109)
--> FOAM Warning : 
    From function eigenValues(const tensor&)
    in file primitives/Tensor/tensor/tensor.C at line 178
    complex eigenvalues detected for tensor: (-1534.5023473978 176.64335452567 35480.310987076 -922.10563002231 -1319.7793137497 3272.9856405224 -43562.960321695 8371.3748205694 259.49433277472)
--> FOAM Warning : 
    From function eigenValues(const tensor&)
    in file primitives/Tensor/tensor/tensor.C at line 178
    complex eigenvalues detected for tensor: (-1534.5023473978 176.64335452567 35480.310987076 -922.10563002231 -1319.7793137497 3272.9856405224 -43562.960321695 8371.3748205694 259.49433277472)
--> FOAM Warning : 
    From function eigenValues(const tensor&)
    in file primitives/Tensor/tensor/tensor.C at line 178
    complex eigenvalues detected for tensor: (-2702.4986752561 -738.81863983426 34366.104849259 -117.79190216794 -2431.1690239646 2782.9152673669 -41798.332944127 7879.5850250384 3145.6346004548)
--> FOAM Warning : 
    From function eigenValues(const tensor&)
    in file primitives/Tensor/tensor/tensor.C at line 178
    complex eigenvalues detected for tensor: (-2702.4986752561 -738.81863983426 34366.104849259 -117.79190216794 -2431.1690239646 2782.9152673669 -41798.332944127 7879.5850250384 3145.6346004548)
--> FOAM Warning : 
    From function eigenValues(const tensor&)
    in file primitives/Tensor/tensor/tensor.C at line 178
    complex eigenvalues detected for tensor: (-3759.3802434312 -1568.7948872973 32719.185435039 636.39780460199 -3446.0307767427 2352.098686629 -39472.701563078 7296.8383212929 5763.0614075271)
--> FOAM Warning : 
    From function eigenValues(const tensor&)
    in file primitives/Tensor/tensor/tensor.C at line 178
    complex eigenvalues detected for tensor: (-3759.3802434312 -1568.7948872973 32719.185435039 636.39780460199 -3446.0307767427 2352.098686629 -39472.701563078 7296.8383212929 5763.0614075271)
--> FOAM Warning : 
    From function eigenValues(const tensor&)
    in file primitives/Tensor/tensor/tensor.C at line 178
    complex eigenvalues detected for tensor: (-4705.3308284392 -2310.6258531627 30590.05349121 1326.7555188458 -4360.234371195 1974.6995108436 -36647.257193173 6645.5991195815 8109.4096162695)
--> FOAM Warning : 
    From function eigenValues(const tensor&)
    in file primitives/Tensor/tensor/tensor.C at line 178
    complex eigenvalues detected for tensor: (-4705.3308284392 -2310.6258531627 30590.05349121 1326.7555188458 -4360.234371195 1974.6995108436 -36647.257193173 6645.5991195815 8109.4096162695)
--> FOAM Warning : 
    From function eigenValues(const tensor&)
    in file primitives/Tensor/tensor/tensor.C at line 178
    complex eigenvalues detected for tensor: (971.1292009287 2640.4991810661 34750.752905137 -2928.7778931599 927.52136668134 4734.1755449007 -45923.377087357 9100.3701028977 -5879.8090377886)
--> FOAM Warning : 
    From function eigenValues(const tensor&)
    in file primitives/Tensor/tensor/tensor.C at line 178
    complex eigenvalues detected for tensor: (971.1292009287 2640.4991810661 34750.752905137 -2928.7778931599 927.52136668134 4734.1755449007 -45923.377087357 9100.3701028977 -5879.8090377886)
--> FOAM Warning : 
    From function eigenValues(const tensor&)
    in file primitives/Tensor/tensor/tensor.C at line 178
    complex eigenvalues detected for tensor: (-308.02628352319 1483.9271151598 34922.319686122 -2016.8901547078 -283.29300789083 4071.4667427361 -45440.330162121 8907.9722360631 -2699.8309480308)
--> FOAM Warning : 
    From function eigenValues(const tensor&)
    in file primitives/Tensor/tensor/tensor.C at line 178
    complex eigenvalues detected for tensor: (-308.02628352319 1483.9271151598 34922.319686122 -2016.8901547078 -283.29300789083 4071.4667427361 -45440.330162121 8907.9722360631 -2699.8309480308)
--> FOAM Warning : 
    From function eigenValues(const tensor&)
    in file primitives/Tensor/tensor/tensor.C at line 178
    complex eigenvalues detected for tensor: (-1491.2932644841 401.37848462462 34480.494768908 -1098.5791129937 -1416.8866631253 3492.3737701049 -44258.318118674 8532.1803714786 243.40985189232)
--> FOAM Warning : 
    From function eigenValues(const tensor&)
    in file primitives/Tensor/tensor/tensor.C at line 178
    complex eigenvalues detected for tensor: (-1491.2932644841 401.37848462462 34480.494768908 -1098.5791129937 -1416.8866631253 3492.3737701049 -44258.318118674 8532.1803714786 243.40985189232)
--> FOAM Warning : 
    From function eigenValues(const tensor&)
    in file primitives/Tensor/tensor/tensor.C at line 178
    complex eigenvalues detected for tensor: (-2575.1546835815 -596.24843930903 33460.303884201 -213.12028246011 -2463.0994066692 2982.6166069591 -42444.67284381 8028.4286779768 2940.3632050587)
--> FOAM Warning : 
    From function eigenValues(const tensor&)
    in file primitives/Tensor/tensor/tensor.C at line 178
    complex eigenvalues detected for tensor: (-2575.1546835815 -596.24843930903 33460.303884201 -213.12028246011 -2463.0994066692 2982.6166069591 -42444.67284381 8028.4286779768 2940.3632050587)
--> FOAM Warning : 
    From function eigenValues(const tensor&)
    in file primitives/Tensor/tensor/tensor.C at line 178
    complex eigenvalues detected for tensor: (-3557.6082549235 -1502.3839943898 31904.682488754 615.72953379127 -3416.2377383102 2531.6892827728 -40062.727836666 7433.0338792751 5385.6188415796)
--> FOAM Warning : 
    From function eigenValues(const tensor&)
    in file primitives/Tensor/tensor/tensor.C at line 178
    complex eigenvalues detected for tensor: (-3557.6082549235 -1502.3839943898 31904.682488754 615.72953379127 -3416.2377383102 2531.6892827728 -40062.727836666 7433.0338792751 5385.6188415796)
--> FOAM Warning : 
    From function eigenValues(const tensor&)
    in file primitives/Tensor/tensor/tensor.C at line 178
    complex eigenvalues detected for tensor: (-4438.0741524124 -2313.5086133812 29864.846229059 1373.646810949 -4273.4767667379 2133.9961276087 -37176.882156606 6768.8501111937 7577.2474942585)
--> FOAM Warning : 
    From function eigenValues(const tensor&)
    in file primitives/Tensor/tensor/tensor.C at line 178
    complex eigenvalues detected for tensor: (-4438.0741524124 -2313.5086133812 29864.846229059 1373.646810949 -4273.4767667379 2133.9961276087 -37176.882156606 6768.8501111937 7577.2474942585)
--> FOAM Warning : 
    From function eigenValues(const tensor&)
    in file primitives/Tensor/tensor/tensor.C at line 178
    complex eigenvalues detected for tensor: (785.09864038222 3204.7200614664 33523.464555439 -3368.5954852961 681.93365045298 4798.0298266004 -46690.847091301 9161.0927420623 -5434.7302703885)
--> FOAM Warning : 
    From function eigenValues(const tensor&)
    in file primitives/Tensor/tensor/tensor.C at line 178
    complex eigenvalues detected for tensor: (785.09864038222 3204.7200614664 33523.464555439 -3368.5954852961 681.93365045298 4798.0298266004 -46690.847091301 9161.0927420623 -5434.7302703885)
--> FOAM Warning : 
    From function eigenValues(const tensor&)
    in file primitives/Tensor/tensor/tensor.C at line 178
    complex eigenvalues detected for tensor: (-380.44203030902 1968.1860407626 33800.445385928 -2364.7029860434 -455.24342003499 4135.4335875109 -46190.668298491 8962.4936894375 -2494.4550360263)
--> FOAM Warning : 
    From function eigenValues(const tensor&)
    in file primitives/Tensor/tensor/tensor.C at line 178
    complex eigenvalues detected for tensor: (-380.44203030902 1968.1860407626 33800.445385928 -2364.7029860434 -455.24342003499 4135.4335875109 -46190.668298491 8962.4936894375 -2494.4550360263)
--> FOAM Warning : 
    From function eigenValues(const tensor&)
    in file primitives/Tensor/tensor/tensor.C at line 178
    complex eigenvalues detected for tensor: (-1462.805080452 804.45820240754 33457.779948709 -1359.4110899513 -1514.370215687 3554.3576166347 -44970.924212111 8581.5511978592 225.64943499972)
--> FOAM Warning : 
    From function eigenValues(const tensor&)
    in file primitives/Tensor/tensor/tensor.C at line 178
    complex eigenvalues detected for tensor: (-1462.805080452 804.45820240754 33457.779948709 -1359.4110899513 -1514.370215687 3554.3576166347 -44970.924212111 8581.5511978592 225.64943499972)
--> FOAM Warning : 
    From function eigenValues(const tensor&)
    in file primitives/Tensor/tensor/tensor.C at line 178
    complex eigenvalues detected for tensor: (-2456.7007137457 -271.39760733594 32532.756829513 -393.30190666743 -2488.4076448433 3040.8007344207 -43106.953175023 8073.5112654618 2717.1605745356)
--> FOAM Warning : 
    From function eigenValues(const tensor&)
    in file primitives/Tensor/tensor/tensor.C at line 178
    complex eigenvalues detected for tensor: (-2456.7007137457 -271.39760733594 32532.756829513 -393.30190666743 -2488.4076448433 3040.8007344207 -43106.953175023 8073.5112654618 2717.1605745356)
--> FOAM Warning : 
    From function eigenValues(const tensor&)
    in file primitives/Tensor/tensor/tensor.C at line 178
    complex eigenvalues detected for tensor: (-3359.1732159897 -1250.2940924457 31069.768029849 508.78891041615 -3373.6363366247 2584.8580963468 -40667.173964793 7474.4794167068 4975.38977932)
--> FOAM Warning : 
    From function eigenValues(const tensor&)
    in file primitives/Tensor/tensor/tensor.C at line 178
    complex eigenvalues detected for tensor: (-3359.1732159897 -1250.2940924457 31069.768029849 508.78891041615 -3373.6363366247 2584.8580963468 -40667.173964793 7474.4794167068 4975.38977932)
--> FOAM Warning : 
    From function eigenValues(const tensor&)
    in file primitives/Tensor/tensor/tensor.C at line 178
    complex eigenvalues detected for tensor: (-4169.0886041233 -2127.5293555481 29120.70731955 1332.1087304097 -4168.4973424595 2181.606019094 -37719.467150727 6807.0154554719 6999.0054106667)
--> FOAM Warning : 
    From function eigenValues(const tensor&)
    in file primitives/Tensor/tensor/tensor.C at line 178
    complex eigenvalues detected for tensor: (-4169.0886041233 -2127.5293555481 29120.70731955 1332.1087304097 -4168.4973424595 2181.606019094 -37719.467150727 6807.0154554719 6999.0054106667)
det: -9.9800884180147e+93, 1.0267331325378e+95
mpirun: Forwarding signal 20 to job
Abort is in progress...hit ctrl-c again within 5 seconds to forcibly terminate

